Program Version,EnergyPlus, Version 8.6.0-198c6a3cff, YMD=2018.12.13 17:06
! This file shows details about the branches, nodes, and other
! elements of the flow connections.
! This file is intended for use in "debugging" potential problems
! that may also be detected by the program, but may be more easily
! identified by "eye".
! This file is also intended to support software which draws a
! schematic diagram of the HVAC system.
! ===============================================================
! #Nodes,<Number of Unique Nodes>
 #Nodes,114
! <Node>,<NodeNumber>,<Node Name>,<Node Fluid Type>,<# Times Node Referenced After Definition>
 Node,1,AIR LOOP DEMAND SIDE INLET 1,Air,3
 Node,2,AIR LOOP SUPPLY SIDE OUTLET 1,Air,8
 Node,3,BLOCK12:ZONE3 COOLED BEAM SUPPLY INLET,Air,3
 Node,4,BLOCK12:ZONE1 COOLED BEAM SUPPLY INLET,Air,3
 Node,5,BLOCK12:ZONE10 COOLED BEAM SUPPLY INLET,Air,3
 Node,6,BLOCK12:ZONE6 COOLED BEAM SUPPLY INLET,Air,3
 Node,7,BLOCK12:ZONE5 COOLED BEAM SUPPLY INLET,Air,3
 Node,8,BLOCK12:ZONE4 COOLED BEAM SUPPLY INLET,Air,3
 Node,9,BLOCK12:ZONE2 COOLED BEAM SUPPLY INLET,Air,3
 Node,10,AIR LOOP AHU COOLING COIL AIR OUTLET NODE,Air,9
 Node,11,HW LOOP SUPPLY SIDE OUTLET,Water,5
 Node,12,CHW LOOP SUPPLY SIDE OUTLET,Water,5
 Node,13,CHW BEAM LOOP SUPPLY SIDE OUTLET,Water,5
 Node,14,HX SUPPLY SIDE OUTLET NODE,Water,4
 Node,15,AIR LOOP SUPPLY SIDE INLET,Air,2
 Node,16,AIR LOOP AHU EXTRACT FAN AIR OUTLET NODE,Air,4
 Node,17,AIR LOOP AHU MIXED AIR OUTLET,Air,5
 Node,18,AIR LOOP AHU HEATING COIL AIR OUTLET NODE,Air,7
 Node,19,HW LOOP DEMAND SIDE INLET,Water,2
 Node,20,HW LOOP DEMAND SIDE INLET BRANCH PIPE OUTLET,Water,1
 Node,21,HW LOOP DEMAND SIDE BYPASS PIPE INLET NODE,Water,1
 Node,22,HW LOOP DEMAND SIDE BYPASS PIPE OUTLET NODE,Water,1
 Node,23,BLOCK12:ZONE3 WATER CONVECTOR HOT WATER INLET NODE,Water,1
 Node,24,BLOCK12:ZONE3 WATER CONVECTOR HOT WATER OUTLET NODE,Water,1
 Node,25,BLOCK12:ZONE1 WATER CONVECTOR HOT WATER INLET NODE,Water,1
 Node,26,BLOCK12:ZONE1 WATER CONVECTOR HOT WATER OUTLET NODE,Water,1
 Node,27,BLOCK12:ZONE10 WATER CONVECTOR HOT WATER INLET NODE,Water,1
 Node,28,BLOCK12:ZONE10 WATER CONVECTOR HOT WATER OUTLET NODE,Water,1
 Node,29,BLOCK12:ZONE6 WATER CONVECTOR HOT WATER INLET NODE,Water,1
 Node,30,BLOCK12:ZONE6 WATER CONVECTOR HOT WATER OUTLET NODE,Water,1
 Node,31,BLOCK12:ZONE5 WATER CONVECTOR HOT WATER INLET NODE,Water,1
 Node,32,BLOCK12:ZONE5 WATER CONVECTOR HOT WATER OUTLET NODE,Water,1
 Node,33,BLOCK12:ZONE4 WATER CONVECTOR HOT WATER INLET NODE,Water,1
 Node,34,BLOCK12:ZONE4 WATER CONVECTOR HOT WATER OUTLET NODE,Water,1
 Node,35,BLOCK12:ZONE2 WATER CONVECTOR HOT WATER INLET NODE,Water,1
 Node,36,BLOCK12:ZONE2 WATER CONVECTOR HOT WATER OUTLET NODE,Water,1
 Node,37,HW LOOP DEMAND SIDE OUTLET BRANCH PIPE INLET,Water,1
 Node,38,HW LOOP DEMAND SIDE OUTLET,Water,2
 Node,39,HW LOOP SUPPLY SIDE INLET,Water,2
 Node,40,HW LOOP SUPPLY PUMP WATER OUTLET NODE,Water,1
 Node,41,HW LOOP SUPPLY SIDE BYPASS PIPE INLET NODE,Water,1
 Node,42,HW LOOP SUPPLY SIDE BYPASS PIPE OUTLET NODE,Water,1
 Node,43,DISTRICT HEATING WATER INLET NODE,Water,1
 Node,44,DISTRICT HEATING WATER OUTLET NODE,Water,1
 Node,45,HW LOOP SUPPLY SIDE OUTLET BRANCH PIPE INLET,Water,1
 Node,46,CHW LOOP DEMAND SIDE INLET,Water,2
 Node,47,CHW LOOP DEMAND SIDE INLET BRANCH PIPE OUTLET,Water,1
 Node,48,CHW LOOP DEMAND SIDE BYPASS PIPE INLET NODE,Water,1
 Node,49,CHW LOOP DEMAND SIDE BYPASS PIPE OUTLET NODE,Water,1
 Node,50,AIR LOOP AHU COOLING COIL WATER INLET NODE,Water,2
 Node,51,AIR LOOP AHU COOLING COIL WATER OUTLET NODE,Water,1
 Node,52,HX DEMAND SIDE INLET NODE,Water,1
 Node,53,HX DEMAND SIDE OUTLET NODE,Water,1
 Node,54,CHW LOOP DEMAND SIDE OUTLET BRANCH PIPE INLET,Water,1
 Node,55,CHW LOOP DEMAND SIDE OUTLET,Water,2
 Node,56,CHW LOOP SUPPLY SIDE INLET,Water,2
 Node,57,CHW LOOP SUPPLY PUMP WATER OUTLET NODE,Water,1
 Node,58,CHW LOOP SUPPLY SIDE BYPASS PIPE INLET NODE,Water,1
 Node,59,CHW LOOP SUPPLY SIDE BYPASS PIPE OUTLET NODE,Water,1
 Node,60,DISTRICT COOLING WATER INLET NODE,Water,1
 Node,61,DISTRICT COOLING WATER OUTLET NODE,Water,1
 Node,62,CHW LOOP SUPPLY SIDE OUTLET BRANCH PIPE INLET,Water,1
 Node,63,CHW BEAM LOOP DEMAND SIDE INLET,Water,2
 Node,64,CHW BEAM LOOP DEMAND SIDE INLET BRANCH PIPE OUTLET,Water,1
 Node,65,CHW BEAM LOOP DEMAND SIDE BYPASS PIPE INLET NODE,Water,1
 Node,66,CHW BEAM LOOP DEMAND SIDE BYPASS PIPE OUTLET NODE,Water,1
 Node,67,BLOCK12:ZONE3 COOLED BEAM CHW INLET NODE,Water,1
 Node,68,BLOCK12:ZONE3 COOLED BEAM CHW OUTLET NODE,Water,1
 Node,69,BLOCK12:ZONE1 COOLED BEAM CHW INLET NODE,Water,1
 Node,70,BLOCK12:ZONE1 COOLED BEAM CHW OUTLET NODE,Water,1
 Node,71,BLOCK12:ZONE10 COOLED BEAM CHW INLET NODE,Water,1
 Node,72,BLOCK12:ZONE10 COOLED BEAM CHW OUTLET NODE,Water,1
 Node,73,BLOCK12:ZONE6 COOLED BEAM CHW INLET NODE,Water,1
 Node,74,BLOCK12:ZONE6 COOLED BEAM CHW OUTLET NODE,Water,1
 Node,75,BLOCK12:ZONE5 COOLED BEAM CHW INLET NODE,Water,1
 Node,76,BLOCK12:ZONE5 COOLED BEAM CHW OUTLET NODE,Water,1
 Node,77,BLOCK12:ZONE4 COOLED BEAM CHW INLET NODE,Water,1
 Node,78,BLOCK12:ZONE4 COOLED BEAM CHW OUTLET NODE,Water,1
 Node,79,BLOCK12:ZONE2 COOLED BEAM CHW INLET NODE,Water,1
 Node,80,BLOCK12:ZONE2 COOLED BEAM CHW OUTLET NODE,Water,1
 Node,81,CHW BEAM LOOP DEMAND SIDE OUTLET BRANCH PIPE INLET,Water,1
 Node,82,CHW BEAM LOOP DEMAND SIDE OUTLET,Water,2
 Node,83,CHW BEAM LOOP SUPPLY SIDE INLET,Water,2
 Node,84,CHW BEAM LOOP SUPPLY PUMP WATER OUTLET NODE,Water,1
 Node,85,CHW BEAM LOOP SUPPLY SIDE BYPASS PIPE INLET NODE,Water,1
 Node,86,CHW BEAM LOOP SUPPLY SIDE BYPASS PIPE OUTLET NODE,Water,1
 Node,87,HX SUPPLY SIDE INLET NODE,Water,1
 Node,88,CHW BEAM LOOP SUPPLY SIDE OUTLET BRANCH PIPE INLET,Water,1
 Node,89,AIR LOOP AHU OUTDOOR AIR INLET,Air,2
 Node,90,AIR LOOP AHU HEAT RECOVERY SUPPLY OUTLET,Air,2
 Node,91,BLOCK12:ZONE3 ZONE AIR NODE,Air,0
 Node,92,AIR LOOP ZONE MIXER INLET NODE 1,Air,1
 Node,93,BLOCK12:ZONE1 ZONE AIR NODE,Air,0
 Node,94,AIR LOOP ZONE MIXER INLET NODE 2,Air,1
 Node,95,BLOCK12:ZONE10 ZONE AIR NODE,Air,0
 Node,96,AIR LOOP ZONE MIXER INLET NODE 3,Air,1
 Node,97,BLOCK12:ZONE6 ZONE AIR NODE,Air,0
 Node,98,AIR LOOP ZONE MIXER INLET NODE 4,Air,1
 Node,99,BLOCK12:ZONE5 ZONE AIR NODE,Air,0
 Node,100,AIR LOOP ZONE MIXER INLET NODE 5,Air,1
 Node,101,BLOCK12:ZONE4 ZONE AIR NODE,Air,0
 Node,102,AIR LOOP ZONE MIXER INLET NODE 6,Air,1
 Node,103,BLOCK12:ZONE2 ZONE AIR NODE,Air,0
 Node,104,AIR LOOP ZONE MIXER INLET NODE 7,Air,1
 Node,105,AIR LOOP DEMAND SIDE OUTLET,Air,2
 Node,106,AIR LOOP ZONE SPLITTER OUTLET NODE 1,Air,1
 Node,107,AIR LOOP ZONE SPLITTER OUTLET NODE 2,Air,1
 Node,108,AIR LOOP ZONE SPLITTER OUTLET NODE 3,Air,1
 Node,109,AIR LOOP ZONE SPLITTER OUTLET NODE 4,Air,1
 Node,110,AIR LOOP ZONE SPLITTER OUTLET NODE 5,Air,1
 Node,111,AIR LOOP ZONE SPLITTER OUTLET NODE 6,Air,1
 Node,112,AIR LOOP ZONE SPLITTER OUTLET NODE 7,Air,1
 Node,113,AIR LOOP AHU RELIEF AIR OUTLET,Air,2
 Node,114,AIR LOOP AHU HEAT RECOVERY RELIEF OUTLET,Air,0
! ===============================================================
! Suspicious nodes have 0 references.  It is normal for some nodes, however.
! Listing nodes with 0 references (culled from previous list):
! <Suspicious Node>,<NodeNumber>,<Node Name>,<Node Fluid Type>,<# Times Node Referenced After Definition>
 Suspicious Node,91,BLOCK12:ZONE3 ZONE AIR NODE,Air,0
 Suspicious Node,93,BLOCK12:ZONE1 ZONE AIR NODE,Air,0
 Suspicious Node,95,BLOCK12:ZONE10 ZONE AIR NODE,Air,0
 Suspicious Node,97,BLOCK12:ZONE6 ZONE AIR NODE,Air,0
 Suspicious Node,99,BLOCK12:ZONE5 ZONE AIR NODE,Air,0
 Suspicious Node,101,BLOCK12:ZONE4 ZONE AIR NODE,Air,0
 Suspicious Node,103,BLOCK12:ZONE2 ZONE AIR NODE,Air,0
 Suspicious Node,114,AIR LOOP AHU HEAT RECOVERY RELIEF OUTLET,Air,0
! ===============================================================
! <#Branch Lists>,<Number of Branch Lists>
 #Branch Lists,7
! <Branch List>,<Branch List Count>,<Branch List Name>,<Loop Name>,<Loop Type>,<Number of Branches>
! <Branch>,<Branch Count>,<Branch Name>,<Loop Name>,<Loop Type>,<Branch Inlet Node Name>,<Branch Outlet Node Name>
 Branch List,1,AIR LOOP BRANCHES,AIR LOOP,Air,1
   Branch,1,AIR LOOP AHU MAIN BRANCH,AIR LOOP,Air,AIR LOOP SUPPLY SIDE INLET,AIR LOOP SUPPLY SIDE OUTLET 1
 Branch List,2,HW LOOP DEMAND SIDE BRANCHES,HW LOOP,Plant Demand,10
   Branch,1,HW LOOP DEMAND SIDE INLET BRANCH,HW LOOP,Plant Demand,HW LOOP DEMAND SIDE INLET,HW LOOP DEMAND SIDE INLET BRANCH PIPE OUTLET
   Branch,2,HW LOOP DEMAND SIDE BYPASS BRANCH,HW LOOP,Plant Demand,HW LOOP DEMAND SIDE BYPASS PIPE INLET NODE,HW LOOP DEMAND SIDE BYPASS PIPE OUTLET NODE
   Branch,3,BLOCK12:ZONE3 WATER CONVECTOR HW LOOP DEMAND SIDE BRANCH,HW LOOP,Plant Demand,BLOCK12:ZONE3 WATER CONVECTOR HOT WATER INLET NODE,BLOCK12:ZONE3 WATER CONVECTOR HOT WATER OUTLET NODE
   Branch,4,BLOCK12:ZONE1 WATER CONVECTOR HW LOOP DEMAND SIDE BRANCH,HW LOOP,Plant Demand,BLOCK12:ZONE1 WATER CONVECTOR HOT WATER INLET NODE,BLOCK12:ZONE1 WATER CONVECTOR HOT WATER OUTLET NODE
   Branch,5,BLOCK12:ZONE10 WATER CONVECTOR HW LOOP DEMAND SIDE BRANCH,HW LOOP,Plant Demand,BLOCK12:ZONE10 WATER CONVECTOR HOT WATER INLET NODE,BLOCK12:ZONE10 WATER CONVECTOR HOT WATER OUTLET NODE
   Branch,6,BLOCK12:ZONE6 WATER CONVECTOR HW LOOP DEMAND SIDE BRANCH,HW LOOP,Plant Demand,BLOCK12:ZONE6 WATER CONVECTOR HOT WATER INLET NODE,BLOCK12:ZONE6 WATER CONVECTOR HOT WATER OUTLET NODE
   Branch,7,BLOCK12:ZONE5 WATER CONVECTOR HW LOOP DEMAND SIDE BRANCH,HW LOOP,Plant Demand,BLOCK12:ZONE5 WATER CONVECTOR HOT WATER INLET NODE,BLOCK12:ZONE5 WATER CONVECTOR HOT WATER OUTLET NODE
   Branch,8,BLOCK12:ZONE4 WATER CONVECTOR HW LOOP DEMAND SIDE BRANCH,HW LOOP,Plant Demand,BLOCK12:ZONE4 WATER CONVECTOR HOT WATER INLET NODE,BLOCK12:ZONE4 WATER CONVECTOR HOT WATER OUTLET NODE
   Branch,9,BLOCK12:ZONE2 WATER CONVECTOR HW LOOP DEMAND SIDE BRANCH,HW LOOP,Plant Demand,BLOCK12:ZONE2 WATER CONVECTOR HOT WATER INLET NODE,BLOCK12:ZONE2 WATER CONVECTOR HOT WATER OUTLET NODE
   Branch,10,HW LOOP DEMAND SIDE OUTLET BRANCH,HW LOOP,Plant Demand,HW LOOP DEMAND SIDE OUTLET BRANCH PIPE INLET,HW LOOP DEMAND SIDE OUTLET
 Branch List,3,HW LOOP SUPPLY SIDE BRANCHES,HW LOOP,Plant Supply,4
   Branch,1,HW LOOP SUPPLY SIDE INLET BRANCH,HW LOOP,Plant Supply,HW LOOP SUPPLY SIDE INLET,HW LOOP SUPPLY PUMP WATER OUTLET NODE
   Branch,2,HW LOOP SUPPLY SIDE BYPASS BRANCH,HW LOOP,Plant Supply,HW LOOP SUPPLY SIDE BYPASS PIPE INLET NODE,HW LOOP SUPPLY SIDE BYPASS PIPE OUTLET NODE
   Branch,3,DISTRICT HEATING HW LOOP SUPPLY SIDE BRANCH,HW LOOP,Plant Supply,DISTRICT HEATING WATER INLET NODE,DISTRICT HEATING WATER OUTLET NODE
   Branch,4,HW LOOP SUPPLY SIDE OUTLET BRANCH,HW LOOP,Plant Supply,HW LOOP SUPPLY SIDE OUTLET BRANCH PIPE INLET,HW LOOP SUPPLY SIDE OUTLET
 Branch List,4,CHW LOOP DEMAND SIDE BRANCHES,CHW LOOP,Plant Demand,5
   Branch,1,CHW LOOP DEMAND SIDE INLET BRANCH,CHW LOOP,Plant Demand,CHW LOOP DEMAND SIDE INLET,CHW LOOP DEMAND SIDE INLET BRANCH PIPE OUTLET
   Branch,2,CHW LOOP DEMAND SIDE BYPASS BRANCH,CHW LOOP,Plant Demand,CHW LOOP DEMAND SIDE BYPASS PIPE INLET NODE,CHW LOOP DEMAND SIDE BYPASS PIPE OUTLET NODE
   Branch,3,AIR LOOP AHU COOLING COIL CHW LOOP DEMAND SIDE BRANCH,CHW LOOP,Plant Demand,AIR LOOP AHU COOLING COIL WATER INLET NODE,AIR LOOP AHU COOLING COIL WATER OUTLET NODE
   Branch,4,HX CHW LOOP DEMAND SIDE BRANCH,CHW LOOP,Plant Demand,HX DEMAND SIDE INLET NODE,HX DEMAND SIDE OUTLET NODE
   Branch,5,CHW LOOP DEMAND SIDE OUTLET BRANCH,CHW LOOP,Plant Demand,CHW LOOP DEMAND SIDE OUTLET BRANCH PIPE INLET,CHW LOOP DEMAND SIDE OUTLET
 Branch List,5,CHW LOOP SUPPLY SIDE BRANCHES,CHW LOOP,Plant Supply,4
   Branch,1,CHW LOOP SUPPLY SIDE INLET BRANCH,CHW LOOP,Plant Supply,CHW LOOP SUPPLY SIDE INLET,CHW LOOP SUPPLY PUMP WATER OUTLET NODE
   Branch,2,CHW LOOP SUPPLY SIDE BYPASS BRANCH,CHW LOOP,Plant Supply,CHW LOOP SUPPLY SIDE BYPASS PIPE INLET NODE,CHW LOOP SUPPLY SIDE BYPASS PIPE OUTLET NODE
   Branch,3,DISTRICT COOLING CHW LOOP SUPPLY SIDE BRANCH,CHW LOOP,Plant Supply,DISTRICT COOLING WATER INLET NODE,DISTRICT COOLING WATER OUTLET NODE
   Branch,4,CHW LOOP SUPPLY SIDE OUTLET BRANCH,CHW LOOP,Plant Supply,CHW LOOP SUPPLY SIDE OUTLET BRANCH PIPE INLET,CHW LOOP SUPPLY SIDE OUTLET
 Branch List,6,CHW BEAM LOOP DEMAND SIDE BRANCHES,CHW BEAM LOOP,Plant Demand,10
   Branch,1,CHW BEAM LOOP DEMAND SIDE INLET BRANCH,CHW BEAM LOOP,Plant Demand,CHW BEAM LOOP DEMAND SIDE INLET,CHW BEAM LOOP DEMAND SIDE INLET BRANCH PIPE OUTLET
   Branch,2,CHW BEAM LOOP DEMAND SIDE BYPASS BRANCH,CHW BEAM LOOP,Plant Demand,CHW BEAM LOOP DEMAND SIDE BYPASS PIPE INLET NODE,CHW BEAM LOOP DEMAND SIDE BYPASS PIPE OUTLET NODE
   Branch,3,BLOCK12:ZONE3 COOLED BEAM CHW BEAM LOOP DEMAND SIDE BRANCH,CHW BEAM LOOP,Plant Demand,BLOCK12:ZONE3 COOLED BEAM CHW INLET NODE,BLOCK12:ZONE3 COOLED BEAM CHW OUTLET NODE
   Branch,4,BLOCK12:ZONE1 COOLED BEAM CHW BEAM LOOP DEMAND SIDE BRANCH,CHW BEAM LOOP,Plant Demand,BLOCK12:ZONE1 COOLED BEAM CHW INLET NODE,BLOCK12:ZONE1 COOLED BEAM CHW OUTLET NODE
   Branch,5,BLOCK12:ZONE10 COOLED BEAM CHW BEAM LOOP DEMAND SIDE BRANCH,CHW BEAM LOOP,Plant Demand,BLOCK12:ZONE10 COOLED BEAM CHW INLET NODE,BLOCK12:ZONE10 COOLED BEAM CHW OUTLET NODE
   Branch,6,BLOCK12:ZONE6 COOLED BEAM CHW BEAM LOOP DEMAND SIDE BRANCH,CHW BEAM LOOP,Plant Demand,BLOCK12:ZONE6 COOLED BEAM CHW INLET NODE,BLOCK12:ZONE6 COOLED BEAM CHW OUTLET NODE
   Branch,7,BLOCK12:ZONE5 COOLED BEAM CHW BEAM LOOP DEMAND SIDE BRANCH,CHW BEAM LOOP,Plant Demand,BLOCK12:ZONE5 COOLED BEAM CHW INLET NODE,BLOCK12:ZONE5 COOLED BEAM CHW OUTLET NODE
   Branch,8,BLOCK12:ZONE4 COOLED BEAM CHW BEAM LOOP DEMAND SIDE BRANCH,CHW BEAM LOOP,Plant Demand,BLOCK12:ZONE4 COOLED BEAM CHW INLET NODE,BLOCK12:ZONE4 COOLED BEAM CHW OUTLET NODE
   Branch,9,BLOCK12:ZONE2 COOLED BEAM CHW BEAM LOOP DEMAND SIDE BRANCH,CHW BEAM LOOP,Plant Demand,BLOCK12:ZONE2 COOLED BEAM CHW INLET NODE,BLOCK12:ZONE2 COOLED BEAM CHW OUTLET NODE
   Branch,10,CHW BEAM LOOP DEMAND SIDE OUTLET BRANCH,CHW BEAM LOOP,Plant Demand,CHW BEAM LOOP DEMAND SIDE OUTLET BRANCH PIPE INLET,CHW BEAM LOOP DEMAND SIDE OUTLET
 Branch List,7,CHW BEAM LOOP SUPPLY SIDE BRANCHES,CHW BEAM LOOP,Plant Supply,4
   Branch,1,CHW BEAM LOOP SUPPLY SIDE INLET BRANCH,CHW BEAM LOOP,Plant Supply,CHW BEAM LOOP SUPPLY SIDE INLET,CHW BEAM LOOP SUPPLY PUMP WATER OUTLET NODE
   Branch,2,CHW BEAM LOOP SUPPLY SIDE BYPASS BRANCH,CHW BEAM LOOP,Plant Supply,CHW BEAM LOOP SUPPLY SIDE BYPASS PIPE INLET NODE,CHW BEAM LOOP SUPPLY SIDE BYPASS PIPE OUTLET NODE
   Branch,3,HX CHW BEAM LOOP SUPPLY SIDE BRANCH,CHW BEAM LOOP,Plant Supply,HX SUPPLY SIDE INLET NODE,HX SUPPLY SIDE OUTLET NODE
   Branch,4,CHW BEAM LOOP SUPPLY SIDE OUTLET BRANCH,CHW BEAM LOOP,Plant Supply,CHW BEAM LOOP SUPPLY SIDE OUTLET BRANCH PIPE INLET,CHW BEAM LOOP SUPPLY SIDE OUTLET
! ===============================================================
! <#Supply Air Paths>,<Number of Supply Air Paths>
 #Supply Air Paths,1
! <Supply Air Path>,<Supply Air Path Count>,<Supply Air Path Name>,<AirLoopHVAC Name>
! <#Components on Supply Air Path>,<Number of Components>
! <Supply Air Path Component>,<Component Count>,<Component Type>,<Component Name>,<AirLoopHVAC Name>
! <#Outlet Nodes on Supply Air Path Component>,<Number of Nodes>
! <Supply Air Path Component Nodes>,<Node Count>,<Component Type>,<Component Name>,<Inlet Node Name>,<Outlet Node Name>,<AirLoopHVAC Name>
 Supply Air Path,1,AIR LOOP DEMAND SIDE SUPPLY PATH 1,AIR LOOP
   #Components on Supply Air Path,1
   Supply Air Path Component,1,AIRLOOPHVAC:ZONESPLITTER,AIR LOOP ZONE SPLITTER,AIR LOOP
     #Outlet Nodes on Supply Air Path Component,7
     Supply Air Path Component Nodes,1,AIRLOOPHVAC:ZONESPLITTER,AIR LOOP ZONE SPLITTER,AIR LOOP DEMAND SIDE INLET 1,AIR LOOP ZONE SPLITTER OUTLET NODE 1,AIR LOOP
     Supply Air Path Component Nodes,2,AIRLOOPHVAC:ZONESPLITTER,AIR LOOP ZONE SPLITTER,AIR LOOP DEMAND SIDE INLET 1,AIR LOOP ZONE SPLITTER OUTLET NODE 2,AIR LOOP
     Supply Air Path Component Nodes,3,AIRLOOPHVAC:ZONESPLITTER,AIR LOOP ZONE SPLITTER,AIR LOOP DEMAND SIDE INLET 1,AIR LOOP ZONE SPLITTER OUTLET NODE 3,AIR LOOP
     Supply Air Path Component Nodes,4,AIRLOOPHVAC:ZONESPLITTER,AIR LOOP ZONE SPLITTER,AIR LOOP DEMAND SIDE INLET 1,AIR LOOP ZONE SPLITTER OUTLET NODE 4,AIR LOOP
     Supply Air Path Component Nodes,5,AIRLOOPHVAC:ZONESPLITTER,AIR LOOP ZONE SPLITTER,AIR LOOP DEMAND SIDE INLET 1,AIR LOOP ZONE SPLITTER OUTLET NODE 5,AIR LOOP
     Supply Air Path Component Nodes,6,AIRLOOPHVAC:ZONESPLITTER,AIR LOOP ZONE SPLITTER,AIR LOOP DEMAND SIDE INLET 1,AIR LOOP ZONE SPLITTER OUTLET NODE 6,AIR LOOP
     Supply Air Path Component Nodes,7,AIRLOOPHVAC:ZONESPLITTER,AIR LOOP ZONE SPLITTER,AIR LOOP DEMAND SIDE INLET 1,AIR LOOP ZONE SPLITTER OUTLET NODE 7,AIR LOOP
! <#Nodes on Supply Air Path>,<Number of Nodes>
! <Supply Air Path Node>,<Node Type>,<Node Count>,<Node Name>,<AirLoopHVAC Name>
#Nodes on Supply Air Path,8
   Supply Air Path Node,Inlet Node,1,AIR LOOP DEMAND SIDE INLET 1,AIR LOOP
   Supply Air Path Node,Outlet Node,2,AIR LOOP ZONE SPLITTER OUTLET NODE 1,AIR LOOP
   Supply Air Path Node,Outlet Node,3,AIR LOOP ZONE SPLITTER OUTLET NODE 2,AIR LOOP
   Supply Air Path Node,Outlet Node,4,AIR LOOP ZONE SPLITTER OUTLET NODE 3,AIR LOOP
   Supply Air Path Node,Outlet Node,5,AIR LOOP ZONE SPLITTER OUTLET NODE 4,AIR LOOP
   Supply Air Path Node,Outlet Node,6,AIR LOOP ZONE SPLITTER OUTLET NODE 5,AIR LOOP
   Supply Air Path Node,Outlet Node,7,AIR LOOP ZONE SPLITTER OUTLET NODE 6,AIR LOOP
   Supply Air Path Node,Outlet Node,8,AIR LOOP ZONE SPLITTER OUTLET NODE 7,AIR LOOP
! ===============================================================
! <#Return Air Paths>,<Number of Return Air Paths>
 #Return Air Paths,1
! <Return Air Path>,<Return Air Path Count>,<Return Air Path Name>,<AirLoopHVAC Name>
! <#Components on Return Air Path>,<Number of Components>
! <Return Air Path Component>,<Component Count>,<Component Type>,<Component Name>,<AirLoopHVAC Name>
! <#Inlet Nodes on Return Air Path Component>,<Number of Nodes>
! <Return Air Path Component Nodes>,<Node Count>,<Component Type>,<Component Name>,<Inlet Node Name>,<Outlet Node Name>,<AirLoopHVAC Name>
 Return Air Path,1,AIR LOOP DEMAND SIDE RETURN PATH,AIR LOOP
   #Components on Return Air Path,1
   Return Air Path Component,1,AIRLOOPHVAC:ZONEMIXER,AIR LOOP ZONE MIXER,AIR LOOP
     #Inlet Nodes on Return Air Path Component,7
     Return Air Path Component Nodes,1,AIRLOOPHVAC:ZONEMIXER,AIR LOOP ZONE MIXER,AIR LOOP ZONE MIXER INLET NODE 1,AIR LOOP DEMAND SIDE OUTLET,AIR LOOP
     Return Air Path Component Nodes,2,AIRLOOPHVAC:ZONEMIXER,AIR LOOP ZONE MIXER,AIR LOOP ZONE MIXER INLET NODE 2,AIR LOOP DEMAND SIDE OUTLET,AIR LOOP
     Return Air Path Component Nodes,3,AIRLOOPHVAC:ZONEMIXER,AIR LOOP ZONE MIXER,AIR LOOP ZONE MIXER INLET NODE 3,AIR LOOP DEMAND SIDE OUTLET,AIR LOOP
     Return Air Path Component Nodes,4,AIRLOOPHVAC:ZONEMIXER,AIR LOOP ZONE MIXER,AIR LOOP ZONE MIXER INLET NODE 4,AIR LOOP DEMAND SIDE OUTLET,AIR LOOP
     Return Air Path Component Nodes,5,AIRLOOPHVAC:ZONEMIXER,AIR LOOP ZONE MIXER,AIR LOOP ZONE MIXER INLET NODE 5,AIR LOOP DEMAND SIDE OUTLET,AIR LOOP
     Return Air Path Component Nodes,6,AIRLOOPHVAC:ZONEMIXER,AIR LOOP ZONE MIXER,AIR LOOP ZONE MIXER INLET NODE 6,AIR LOOP DEMAND SIDE OUTLET,AIR LOOP
     Return Air Path Component Nodes,7,AIRLOOPHVAC:ZONEMIXER,AIR LOOP ZONE MIXER,AIR LOOP ZONE MIXER INLET NODE 7,AIR LOOP DEMAND SIDE OUTLET,AIR LOOP
! <#Nodes on Return Air Path>,<Number of Nodes>
! <Return Air Path Node>,<Node Type>,<Node Count>,<Node Name>,<AirLoopHVAC Name>
   #Nodes on Return Air Path,8
   Return Air Path Node,Outlet Node,1,AIR LOOP DEMAND SIDE OUTLET,AIR LOOP
   Return Air Path Node,Inlet Node,2,AIR LOOP ZONE MIXER INLET NODE 1,AIR LOOP
   Return Air Path Node,Inlet Node,3,AIR LOOP ZONE MIXER INLET NODE 2,AIR LOOP
   Return Air Path Node,Inlet Node,4,AIR LOOP ZONE MIXER INLET NODE 3,AIR LOOP
   Return Air Path Node,Inlet Node,5,AIR LOOP ZONE MIXER INLET NODE 4,AIR LOOP
   Return Air Path Node,Inlet Node,6,AIR LOOP ZONE MIXER INLET NODE 5,AIR LOOP
   Return Air Path Node,Inlet Node,7,AIR LOOP ZONE MIXER INLET NODE 6,AIR LOOP
   Return Air Path Node,Inlet Node,8,AIR LOOP ZONE MIXER INLET NODE 7,AIR LOOP
! ===============================================================
! #Outdoor Air Nodes,<Number of Outdoor Air Nodes>
 #Outdoor Air Nodes,1
! <Outdoor Air Node>,<NodeNumber>,<Node Name>
 Outdoor Air Node,89,AIR LOOP AHU OUTDOOR AIR INLET
! ===============================================================
! <#Component Sets>,<Number of Component Sets>
 #Component Sets,51
! <Component Set>,<Component Set Count>,<Parent Object Type>,<Parent Object Name>,<Component Type>,<Component Name>,<Inlet Node ID>,<Outlet Node ID>,<Description>
 Component Set,1,BRANCH,AIR LOOP AHU MAIN BRANCH,FAN:CONSTANTVOLUME,AIR LOOP AHU EXTRACT FAN,AIR LOOP SUPPLY SIDE INLET,AIR LOOP AHU EXTRACT FAN AIR OUTLET NODE,Air Nodes
 Component Set,2,BRANCH,AIR LOOP AHU MAIN BRANCH,AIRLOOPHVAC:OUTDOORAIRSYSTEM,AIR LOOP AHU OUTDOOR AIR SYSTEM,AIR LOOP AHU EXTRACT FAN AIR OUTLET NODE,AIR LOOP AHU MIXED AIR OUTLET,Air Nodes
 Component Set,3,BRANCH,AIR LOOP AHU MAIN BRANCH,COIL:COOLING:WATER,AIR LOOP AHU COOLING COIL,AIR LOOP AHU MIXED AIR OUTLET,AIR LOOP AHU COOLING COIL AIR OUTLET NODE,Air Nodes
 Component Set,4,BRANCH,AIR LOOP AHU MAIN BRANCH,COIL:HEATING:ELECTRIC,AIR LOOP AHU HEATING COIL,AIR LOOP AHU COOLING COIL AIR OUTLET NODE,AIR LOOP AHU HEATING COIL AIR OUTLET NODE,Air Nodes
 Component Set,5,BRANCH,AIR LOOP AHU MAIN BRANCH,FAN:CONSTANTVOLUME,AIR LOOP AHU SUPPLY FAN,AIR LOOP AHU HEATING COIL AIR OUTLET NODE,AIR LOOP SUPPLY SIDE OUTLET 1,Air Nodes
 Component Set,6,BRANCH,HW LOOP DEMAND SIDE INLET BRANCH,PIPE:ADIABATIC,HW LOOP DEMAND SIDE INLET BRANCH PIPE,HW LOOP DEMAND SIDE INLET,HW LOOP DEMAND SIDE INLET BRANCH PIPE OUTLET,Pipe Nodes
 Component Set,7,BRANCH,HW LOOP DEMAND SIDE BYPASS BRANCH,PIPE:ADIABATIC,HW LOOP DEMAND SIDE BYPASS PIPE,HW LOOP DEMAND SIDE BYPASS PIPE INLET NODE,HW LOOP DEMAND SIDE BYPASS PIPE OUTLET NODE,Pipe Nodes
 Component Set,8,BRANCH,BLOCK12:ZONE3 WATER CONVECTOR HW LOOP DEMAND SIDE BRANCH,ZONEHVAC:BASEBOARD:CONVECTIVE:WATER,BLOCK12:ZONE3 WATER CONVECTOR,BLOCK12:ZONE3 WATER CONVECTOR HOT WATER INLET NODE,BLOCK12:ZONE3 WATER CONVECTOR HOT WATER OUTLET NODE,Hot Water Nodes
 Component Set,9,BRANCH,BLOCK12:ZONE1 WATER CONVECTOR HW LOOP DEMAND SIDE BRANCH,ZONEHVAC:BASEBOARD:CONVECTIVE:WATER,BLOCK12:ZONE1 WATER CONVECTOR,BLOCK12:ZONE1 WATER CONVECTOR HOT WATER INLET NODE,BLOCK12:ZONE1 WATER CONVECTOR HOT WATER OUTLET NODE,Hot Water Nodes
 Component Set,10,BRANCH,BLOCK12:ZONE10 WATER CONVECTOR HW LOOP DEMAND SIDE BRANCH,ZONEHVAC:BASEBOARD:CONVECTIVE:WATER,BLOCK12:ZONE10 WATER CONVECTOR,BLOCK12:ZONE10 WATER CONVECTOR HOT WATER INLET NODE,BLOCK12:ZONE10 WATER CONVECTOR HOT WATER OUTLET NODE,Hot Water Nodes
 Component Set,11,BRANCH,BLOCK12:ZONE6 WATER CONVECTOR HW LOOP DEMAND SIDE BRANCH,ZONEHVAC:BASEBOARD:CONVECTIVE:WATER,BLOCK12:ZONE6 WATER CONVECTOR,BLOCK12:ZONE6 WATER CONVECTOR HOT WATER INLET NODE,BLOCK12:ZONE6 WATER CONVECTOR HOT WATER OUTLET NODE,Hot Water Nodes
 Component Set,12,BRANCH,BLOCK12:ZONE5 WATER CONVECTOR HW LOOP DEMAND SIDE BRANCH,ZONEHVAC:BASEBOARD:CONVECTIVE:WATER,BLOCK12:ZONE5 WATER CONVECTOR,BLOCK12:ZONE5 WATER CONVECTOR HOT WATER INLET NODE,BLOCK12:ZONE5 WATER CONVECTOR HOT WATER OUTLET NODE,Hot Water Nodes
 Component Set,13,BRANCH,BLOCK12:ZONE4 WATER CONVECTOR HW LOOP DEMAND SIDE BRANCH,ZONEHVAC:BASEBOARD:CONVECTIVE:WATER,BLOCK12:ZONE4 WATER CONVECTOR,BLOCK12:ZONE4 WATER CONVECTOR HOT WATER INLET NODE,BLOCK12:ZONE4 WATER CONVECTOR HOT WATER OUTLET NODE,Hot Water Nodes
 Component Set,14,BRANCH,BLOCK12:ZONE2 WATER CONVECTOR HW LOOP DEMAND SIDE BRANCH,ZONEHVAC:BASEBOARD:CONVECTIVE:WATER,BLOCK12:ZONE2 WATER CONVECTOR,BLOCK12:ZONE2 WATER CONVECTOR HOT WATER INLET NODE,BLOCK12:ZONE2 WATER CONVECTOR HOT WATER OUTLET NODE,Hot Water Nodes
 Component Set,15,BRANCH,HW LOOP DEMAND SIDE OUTLET BRANCH,PIPE:ADIABATIC,HW LOOP DEMAND SIDE OUTLET BRANCH PIPE,HW LOOP DEMAND SIDE OUTLET BRANCH PIPE INLET,HW LOOP DEMAND SIDE OUTLET,Pipe Nodes
 Component Set,16,BRANCH,HW LOOP SUPPLY SIDE INLET BRANCH,PUMP:VARIABLESPEED,HW LOOP SUPPLY PUMP,HW LOOP SUPPLY SIDE INLET,HW LOOP SUPPLY PUMP WATER OUTLET NODE,Water Nodes
 Component Set,17,BRANCH,HW LOOP SUPPLY SIDE BYPASS BRANCH,PIPE:ADIABATIC,HW LOOP SUPPLY SIDE BYPASS PIPE,HW LOOP SUPPLY SIDE BYPASS PIPE INLET NODE,HW LOOP SUPPLY SIDE BYPASS PIPE OUTLET NODE,Pipe Nodes
 Component Set,18,BRANCH,DISTRICT HEATING HW LOOP SUPPLY SIDE BRANCH,DISTRICTHEATING,DISTRICT HEATING,DISTRICT HEATING WATER INLET NODE,DISTRICT HEATING WATER OUTLET NODE,Hot Water Nodes
 Component Set,19,BRANCH,HW LOOP SUPPLY SIDE OUTLET BRANCH,PIPE:ADIABATIC,HW LOOP SUPPLY SIDE OUTLET BRANCH PIPE,HW LOOP SUPPLY SIDE OUTLET BRANCH PIPE INLET,HW LOOP SUPPLY SIDE OUTLET,Pipe Nodes
 Component Set,20,BRANCH,CHW LOOP DEMAND SIDE INLET BRANCH,PIPE:ADIABATIC,CHW LOOP DEMAND SIDE INLET BRANCH PIPE,CHW LOOP DEMAND SIDE INLET,CHW LOOP DEMAND SIDE INLET BRANCH PIPE OUTLET,Pipe Nodes
 Component Set,21,BRANCH,CHW LOOP DEMAND SIDE BYPASS BRANCH,PIPE:ADIABATIC,CHW LOOP DEMAND SIDE BYPASS PIPE,CHW LOOP DEMAND SIDE BYPASS PIPE INLET NODE,CHW LOOP DEMAND SIDE BYPASS PIPE OUTLET NODE,Pipe Nodes
 Component Set,22,BRANCH,AIR LOOP AHU COOLING COIL CHW LOOP DEMAND SIDE BRANCH,COIL:COOLING:WATER,AIR LOOP AHU COOLING COIL,AIR LOOP AHU COOLING COIL WATER INLET NODE,AIR LOOP AHU COOLING COIL WATER OUTLET NODE,Water Nodes
 Component Set,23,BRANCH,HX CHW LOOP DEMAND SIDE BRANCH,HEATEXCHANGER:FLUIDTOFLUID,HX,HX DEMAND SIDE INLET NODE,HX DEMAND SIDE OUTLET NODE,Loop Demand Side Plant Nodes
 Component Set,24,BRANCH,CHW LOOP DEMAND SIDE OUTLET BRANCH,PIPE:ADIABATIC,CHW LOOP DEMAND SIDE OUTLET BRANCH PIPE,CHW LOOP DEMAND SIDE OUTLET BRANCH PIPE INLET,CHW LOOP DEMAND SIDE OUTLET,Pipe Nodes
 Component Set,25,BRANCH,CHW LOOP SUPPLY SIDE INLET BRANCH,PUMP:VARIABLESPEED,CHW LOOP SUPPLY PUMP,CHW LOOP SUPPLY SIDE INLET,CHW LOOP SUPPLY PUMP WATER OUTLET NODE,Water Nodes
 Component Set,26,BRANCH,CHW LOOP SUPPLY SIDE BYPASS BRANCH,PIPE:ADIABATIC,CHW LOOP SUPPLY SIDE BYPASS PIPE,CHW LOOP SUPPLY SIDE BYPASS PIPE INLET NODE,CHW LOOP SUPPLY SIDE BYPASS PIPE OUTLET NODE,Pipe Nodes
 Component Set,27,BRANCH,DISTRICT COOLING CHW LOOP SUPPLY SIDE BRANCH,DISTRICTCOOLING,DISTRICT COOLING,DISTRICT COOLING WATER INLET NODE,DISTRICT COOLING WATER OUTLET NODE,Chilled Water Nodes
 Component Set,28,BRANCH,CHW LOOP SUPPLY SIDE OUTLET BRANCH,PIPE:ADIABATIC,CHW LOOP SUPPLY SIDE OUTLET BRANCH PIPE,CHW LOOP SUPPLY SIDE OUTLET BRANCH PIPE INLET,CHW LOOP SUPPLY SIDE OUTLET,Pipe Nodes
 Component Set,29,BRANCH,CHW BEAM LOOP DEMAND SIDE INLET BRANCH,PIPE:ADIABATIC,CHW BEAM LOOP DEMAND SIDE INLET BRANCH PIPE,CHW BEAM LOOP DEMAND SIDE INLET,CHW BEAM LOOP DEMAND SIDE INLET BRANCH PIPE OUTLET,Pipe Nodes
 Component Set,30,BRANCH,CHW BEAM LOOP DEMAND SIDE BYPASS BRANCH,PIPE:ADIABATIC,CHW BEAM LOOP DEMAND SIDE BYPASS PIPE,CHW BEAM LOOP DEMAND SIDE BYPASS PIPE INLET NODE,CHW BEAM LOOP DEMAND SIDE BYPASS PIPE OUTLET NODE,Pipe Nodes
 Component Set,31,BRANCH,BLOCK12:ZONE3 COOLED BEAM CHW BEAM LOOP DEMAND SIDE BRANCH,AIRTERMINAL:SINGLEDUCT:CONSTANTVOLUME:COOLEDBEAM,BLOCK12:ZONE3 COOLED BEAM,BLOCK12:ZONE3 COOLED BEAM CHW INLET NODE,BLOCK12:ZONE3 COOLED BEAM CHW OUTLET NODE,Water Nodes
 Component Set,32,BRANCH,BLOCK12:ZONE1 COOLED BEAM CHW BEAM LOOP DEMAND SIDE BRANCH,AIRTERMINAL:SINGLEDUCT:CONSTANTVOLUME:COOLEDBEAM,BLOCK12:ZONE1 COOLED BEAM,BLOCK12:ZONE1 COOLED BEAM CHW INLET NODE,BLOCK12:ZONE1 COOLED BEAM CHW OUTLET NODE,Water Nodes
 Component Set,33,BRANCH,BLOCK12:ZONE10 COOLED BEAM CHW BEAM LOOP DEMAND SIDE BRANCH,AIRTERMINAL:SINGLEDUCT:CONSTANTVOLUME:COOLEDBEAM,BLOCK12:ZONE10 COOLED BEAM,BLOCK12:ZONE10 COOLED BEAM CHW INLET NODE,BLOCK12:ZONE10 COOLED BEAM CHW OUTLET NODE,Water Nodes
 Component Set,34,BRANCH,BLOCK12:ZONE6 COOLED BEAM CHW BEAM LOOP DEMAND SIDE BRANCH,AIRTERMINAL:SINGLEDUCT:CONSTANTVOLUME:COOLEDBEAM,BLOCK12:ZONE6 COOLED BEAM,BLOCK12:ZONE6 COOLED BEAM CHW INLET NODE,BLOCK12:ZONE6 COOLED BEAM CHW OUTLET NODE,Water Nodes
 Component Set,35,BRANCH,BLOCK12:ZONE5 COOLED BEAM CHW BEAM LOOP DEMAND SIDE BRANCH,AIRTERMINAL:SINGLEDUCT:CONSTANTVOLUME:COOLEDBEAM,BLOCK12:ZONE5 COOLED BEAM,BLOCK12:ZONE5 COOLED BEAM CHW INLET NODE,BLOCK12:ZONE5 COOLED BEAM CHW OUTLET NODE,Water Nodes
 Component Set,36,BRANCH,BLOCK12:ZONE4 COOLED BEAM CHW BEAM LOOP DEMAND SIDE BRANCH,AIRTERMINAL:SINGLEDUCT:CONSTANTVOLUME:COOLEDBEAM,BLOCK12:ZONE4 COOLED BEAM,BLOCK12:ZONE4 COOLED BEAM CHW INLET NODE,BLOCK12:ZONE4 COOLED BEAM CHW OUTLET NODE,Water Nodes
 Component Set,37,BRANCH,BLOCK12:ZONE2 COOLED BEAM CHW BEAM LOOP DEMAND SIDE BRANCH,AIRTERMINAL:SINGLEDUCT:CONSTANTVOLUME:COOLEDBEAM,BLOCK12:ZONE2 COOLED BEAM,BLOCK12:ZONE2 COOLED BEAM CHW INLET NODE,BLOCK12:ZONE2 COOLED BEAM CHW OUTLET NODE,Water Nodes
 Component Set,38,BRANCH,CHW BEAM LOOP DEMAND SIDE OUTLET BRANCH,PIPE:ADIABATIC,CHW BEAM LOOP DEMAND SIDE OUTLET BRANCH PIPE,CHW BEAM LOOP DEMAND SIDE OUTLET BRANCH PIPE INLET,CHW BEAM LOOP DEMAND SIDE OUTLET,Pipe Nodes
 Component Set,39,BRANCH,CHW BEAM LOOP SUPPLY SIDE INLET BRANCH,PUMP:VARIABLESPEED,CHW BEAM LOOP SUPPLY PUMP,CHW BEAM LOOP SUPPLY SIDE INLET,CHW BEAM LOOP SUPPLY PUMP WATER OUTLET NODE,Water Nodes
 Component Set,40,BRANCH,CHW BEAM LOOP SUPPLY SIDE BYPASS BRANCH,PIPE:ADIABATIC,CHW BEAM LOOP SUPPLY SIDE BYPASS PIPE,CHW BEAM LOOP SUPPLY SIDE BYPASS PIPE INLET NODE,CHW BEAM LOOP SUPPLY SIDE BYPASS PIPE OUTLET NODE,Pipe Nodes
 Component Set,41,BRANCH,HX CHW BEAM LOOP SUPPLY SIDE BRANCH,HEATEXCHANGER:FLUIDTOFLUID,HX,HX SUPPLY SIDE INLET NODE,HX SUPPLY SIDE OUTLET NODE,Loop Supply Side Plant Nodes
 Component Set,42,BRANCH,CHW BEAM LOOP SUPPLY SIDE OUTLET BRANCH,PIPE:ADIABATIC,CHW BEAM LOOP SUPPLY SIDE OUTLET BRANCH PIPE,CHW BEAM LOOP SUPPLY SIDE OUTLET BRANCH PIPE INLET,CHW BEAM LOOP SUPPLY SIDE OUTLET,Pipe Nodes
 Component Set,43,ZONEHVAC:AIRDISTRIBUTIONUNIT,BLOCK12:ZONE3 COOLED BEAM ADU,AIRTERMINAL:SINGLEDUCT:CONSTANTVOLUME:COOLEDBEAM,BLOCK12:ZONE3 COOLED BEAM,AIR LOOP ZONE SPLITTER OUTLET NODE 1,BLOCK12:ZONE3 COOLED BEAM SUPPLY INLET,Air Nodes
 Component Set,44,ZONEHVAC:AIRDISTRIBUTIONUNIT,BLOCK12:ZONE1 COOLED BEAM ADU,AIRTERMINAL:SINGLEDUCT:CONSTANTVOLUME:COOLEDBEAM,BLOCK12:ZONE1 COOLED BEAM,AIR LOOP ZONE SPLITTER OUTLET NODE 2,BLOCK12:ZONE1 COOLED BEAM SUPPLY INLET,Air Nodes
 Component Set,45,ZONEHVAC:AIRDISTRIBUTIONUNIT,BLOCK12:ZONE10 COOLED BEAM ADU,AIRTERMINAL:SINGLEDUCT:CONSTANTVOLUME:COOLEDBEAM,BLOCK12:ZONE10 COOLED BEAM,AIR LOOP ZONE SPLITTER OUTLET NODE 3,BLOCK12:ZONE10 COOLED BEAM SUPPLY INLET,Air Nodes
 Component Set,46,ZONEHVAC:AIRDISTRIBUTIONUNIT,BLOCK12:ZONE6 COOLED BEAM ADU,AIRTERMINAL:SINGLEDUCT:CONSTANTVOLUME:COOLEDBEAM,BLOCK12:ZONE6 COOLED BEAM,AIR LOOP ZONE SPLITTER OUTLET NODE 4,BLOCK12:ZONE6 COOLED BEAM SUPPLY INLET,Air Nodes
 Component Set,47,ZONEHVAC:AIRDISTRIBUTIONUNIT,BLOCK12:ZONE5 COOLED BEAM ADU,AIRTERMINAL:SINGLEDUCT:CONSTANTVOLUME:COOLEDBEAM,BLOCK12:ZONE5 COOLED BEAM,AIR LOOP ZONE SPLITTER OUTLET NODE 5,BLOCK12:ZONE5 COOLED BEAM SUPPLY INLET,Air Nodes
 Component Set,48,ZONEHVAC:AIRDISTRIBUTIONUNIT,BLOCK12:ZONE4 COOLED BEAM ADU,AIRTERMINAL:SINGLEDUCT:CONSTANTVOLUME:COOLEDBEAM,BLOCK12:ZONE4 COOLED BEAM,AIR LOOP ZONE SPLITTER OUTLET NODE 6,BLOCK12:ZONE4 COOLED BEAM SUPPLY INLET,Air Nodes
 Component Set,49,ZONEHVAC:AIRDISTRIBUTIONUNIT,BLOCK12:ZONE2 COOLED BEAM ADU,AIRTERMINAL:SINGLEDUCT:CONSTANTVOLUME:COOLEDBEAM,BLOCK12:ZONE2 COOLED BEAM,AIR LOOP ZONE SPLITTER OUTLET NODE 7,BLOCK12:ZONE2 COOLED BEAM SUPPLY INLET,Air Nodes
 Component Set,50,AIRLOOPHVAC:OUTDOORAIRSYSTEM,AIR LOOP AHU OUTDOOR AIR SYSTEM,HEATEXCHANGER:AIRTOAIR:SENSIBLEANDLATENT,AIR LOOP AHU HEAT RECOVERY DEVICE,AIR LOOP AHU OUTDOOR AIR INLET,AIR LOOP AHU HEAT RECOVERY SUPPLY OUTLET,Process Air Nodes
 Component Set,51,AIRLOOPHVAC:OUTDOORAIRSYSTEM,AIR LOOP AHU OUTDOOR AIR SYSTEM,OUTDOORAIR:MIXER,AIR LOOP AHU OUTDOOR AIR MIXER,AIR LOOP AHU HEAT RECOVERY SUPPLY OUTLET,AIR LOOP AHU MIXED AIR OUTLET,Air Nodes
! ===============================================================
! <# Plant Loops>,<Number of Plant Loops>
 #Plant Loops,3
! <Plant Loop>,<Plant Loop Name>,<Loop Type>,<Inlet Node Name>,<Outlet Node Name>,<Branch List>,<Connector List>
! <Plant Loop Connector>,<Connector Type>,<Connector Name>,<Loop Name>,<Loop Type>,<Number of Inlets/Outlets>
! <Plant Loop Connector Branches>,<Connector Node Count>,<Connector Type>,<Connector Name>,<Inlet Branch>,<Outlet Branch>,<Loop Name>,<Loop Type>
! <Plant Loop Connector Nodes>,<Connector Node Count>,<Connector Type>,<Connector Name>,<Inlet Node>,<Outlet Node>,<Loop Name>,<Loop Type>
! <Plant Loop Supply Connection>,<Plant Loop Name>,<Supply Side Outlet Node Name>,<Demand Side Inlet Node Name>
! <Plant Loop Return Connection>,<Plant Loop Name>,<Demand Side Outlet Node Name>,<Supply Side Inlet Node Name>
 Plant Loop,HW LOOP,Demand,HW LOOP DEMAND SIDE INLET,HW LOOP DEMAND SIDE OUTLET,HW LOOP DEMAND SIDE BRANCHES,HW LOOP DEMAND SIDE CONNECTORS
   Plant Loop Connector,Splitter,HW LOOP DEMAND SPLITTER,HW LOOP,Demand,8
     Plant Loop Connector Branches,1,Splitter,HW LOOP DEMAND SPLITTER,HW LOOP DEMAND SIDE INLET BRANCH,HW LOOP DEMAND SIDE BYPASS BRANCH,HW LOOP,Demand
     Plant Loop Connector Nodes,   1,Splitter,HW LOOP DEMAND SPLITTER,HW LOOP DEMAND SIDE INLET BRANCH PIPE OUTLET,HW LOOP DEMAND SIDE BYPASS PIPE INLET NODE,HW LOOP,Demand
     Plant Loop Connector Branches,2,Splitter,HW LOOP DEMAND SPLITTER,HW LOOP DEMAND SIDE INLET BRANCH,BLOCK12:ZONE3 WATER CONVECTOR HW LOOP DEMAND SIDE BRANCH,HW LOOP,Demand
     Plant Loop Connector Nodes,   2,Splitter,HW LOOP DEMAND SPLITTER,HW LOOP DEMAND SIDE INLET BRANCH PIPE OUTLET,BLOCK12:ZONE3 WATER CONVECTOR HOT WATER INLET NODE,HW LOOP,Demand
     Plant Loop Connector Branches,3,Splitter,HW LOOP DEMAND SPLITTER,HW LOOP DEMAND SIDE INLET BRANCH,BLOCK12:ZONE1 WATER CONVECTOR HW LOOP DEMAND SIDE BRANCH,HW LOOP,Demand
     Plant Loop Connector Nodes,   3,Splitter,HW LOOP DEMAND SPLITTER,HW LOOP DEMAND SIDE INLET BRANCH PIPE OUTLET,BLOCK12:ZONE1 WATER CONVECTOR HOT WATER INLET NODE,HW LOOP,Demand
     Plant Loop Connector Branches,4,Splitter,HW LOOP DEMAND SPLITTER,HW LOOP DEMAND SIDE INLET BRANCH,BLOCK12:ZONE10 WATER CONVECTOR HW LOOP DEMAND SIDE BRANCH,HW LOOP,Demand
     Plant Loop Connector Nodes,   4,Splitter,HW LOOP DEMAND SPLITTER,HW LOOP DEMAND SIDE INLET BRANCH PIPE OUTLET,BLOCK12:ZONE10 WATER CONVECTOR HOT WATER INLET NODE,HW LOOP,Demand
     Plant Loop Connector Branches,5,Splitter,HW LOOP DEMAND SPLITTER,HW LOOP DEMAND SIDE INLET BRANCH,BLOCK12:ZONE6 WATER CONVECTOR HW LOOP DEMAND SIDE BRANCH,HW LOOP,Demand
     Plant Loop Connector Nodes,   5,Splitter,HW LOOP DEMAND SPLITTER,HW LOOP DEMAND SIDE INLET BRANCH PIPE OUTLET,BLOCK12:ZONE6 WATER CONVECTOR HOT WATER INLET NODE,HW LOOP,Demand
     Plant Loop Connector Branches,6,Splitter,HW LOOP DEMAND SPLITTER,HW LOOP DEMAND SIDE INLET BRANCH,BLOCK12:ZONE5 WATER CONVECTOR HW LOOP DEMAND SIDE BRANCH,HW LOOP,Demand
     Plant Loop Connector Nodes,   6,Splitter,HW LOOP DEMAND SPLITTER,HW LOOP DEMAND SIDE INLET BRANCH PIPE OUTLET,BLOCK12:ZONE5 WATER CONVECTOR HOT WATER INLET NODE,HW LOOP,Demand
     Plant Loop Connector Branches,7,Splitter,HW LOOP DEMAND SPLITTER,HW LOOP DEMAND SIDE INLET BRANCH,BLOCK12:ZONE4 WATER CONVECTOR HW LOOP DEMAND SIDE BRANCH,HW LOOP,Demand
     Plant Loop Connector Nodes,   7,Splitter,HW LOOP DEMAND SPLITTER,HW LOOP DEMAND SIDE INLET BRANCH PIPE OUTLET,BLOCK12:ZONE4 WATER CONVECTOR HOT WATER INLET NODE,HW LOOP,Demand
     Plant Loop Connector Branches,8,Splitter,HW LOOP DEMAND SPLITTER,HW LOOP DEMAND SIDE INLET BRANCH,BLOCK12:ZONE2 WATER CONVECTOR HW LOOP DEMAND SIDE BRANCH,HW LOOP,Demand
     Plant Loop Connector Nodes,   8,Splitter,HW LOOP DEMAND SPLITTER,HW LOOP DEMAND SIDE INLET BRANCH PIPE OUTLET,BLOCK12:ZONE2 WATER CONVECTOR HOT WATER INLET NODE,HW LOOP,Demand
   Plant Loop Connector,Mixer,HW LOOP DEMAND MIXER,HW LOOP,Demand,8
     Plant Loop Connector Branches,1,Mixer,HW LOOP DEMAND MIXER,HW LOOP DEMAND SIDE BYPASS BRANCH,HW LOOP DEMAND SIDE OUTLET BRANCH,HW LOOP,Demand
     Plant Loop Connector Nodes,   1,Mixer,HW LOOP DEMAND MIXER,HW LOOP DEMAND SIDE BYPASS PIPE OUTLET NODE,HW LOOP DEMAND SIDE OUTLET BRANCH PIPE INLET,HW LOOP,Demand
     Plant Loop Connector Branches,2,Mixer,HW LOOP DEMAND MIXER,BLOCK12:ZONE3 WATER CONVECTOR HW LOOP DEMAND SIDE BRANCH,HW LOOP DEMAND SIDE OUTLET BRANCH,HW LOOP,Demand
     Plant Loop Connector Nodes,   2,Mixer,HW LOOP DEMAND MIXER,BLOCK12:ZONE3 WATER CONVECTOR HOT WATER OUTLET NODE,HW LOOP DEMAND SIDE OUTLET BRANCH PIPE INLET,HW LOOP,Demand
     Plant Loop Connector Branches,3,Mixer,HW LOOP DEMAND MIXER,BLOCK12:ZONE1 WATER CONVECTOR HW LOOP DEMAND SIDE BRANCH,HW LOOP DEMAND SIDE OUTLET BRANCH,HW LOOP,Demand
     Plant Loop Connector Nodes,   3,Mixer,HW LOOP DEMAND MIXER,BLOCK12:ZONE1 WATER CONVECTOR HOT WATER OUTLET NODE,HW LOOP DEMAND SIDE OUTLET BRANCH PIPE INLET,HW LOOP,Demand
     Plant Loop Connector Branches,4,Mixer,HW LOOP DEMAND MIXER,BLOCK12:ZONE10 WATER CONVECTOR HW LOOP DEMAND SIDE BRANCH,HW LOOP DEMAND SIDE OUTLET BRANCH,HW LOOP,Demand
     Plant Loop Connector Nodes,   4,Mixer,HW LOOP DEMAND MIXER,BLOCK12:ZONE10 WATER CONVECTOR HOT WATER OUTLET NODE,HW LOOP DEMAND SIDE OUTLET BRANCH PIPE INLET,HW LOOP,Demand
     Plant Loop Connector Branches,5,Mixer,HW LOOP DEMAND MIXER,BLOCK12:ZONE6 WATER CONVECTOR HW LOOP DEMAND SIDE BRANCH,HW LOOP DEMAND SIDE OUTLET BRANCH,HW LOOP,Demand
     Plant Loop Connector Nodes,   5,Mixer,HW LOOP DEMAND MIXER,BLOCK12:ZONE6 WATER CONVECTOR HOT WATER OUTLET NODE,HW LOOP DEMAND SIDE OUTLET BRANCH PIPE INLET,HW LOOP,Demand
     Plant Loop Connector Branches,6,Mixer,HW LOOP DEMAND MIXER,BLOCK12:ZONE5 WATER CONVECTOR HW LOOP DEMAND SIDE BRANCH,HW LOOP DEMAND SIDE OUTLET BRANCH,HW LOOP,Demand
     Plant Loop Connector Nodes,   6,Mixer,HW LOOP DEMAND MIXER,BLOCK12:ZONE5 WATER CONVECTOR HOT WATER OUTLET NODE,HW LOOP DEMAND SIDE OUTLET BRANCH PIPE INLET,HW LOOP,Demand
     Plant Loop Connector Branches,7,Mixer,HW LOOP DEMAND MIXER,BLOCK12:ZONE4 WATER CONVECTOR HW LOOP DEMAND SIDE BRANCH,HW LOOP DEMAND SIDE OUTLET BRANCH,HW LOOP,Demand
     Plant Loop Connector Nodes,   7,Mixer,HW LOOP DEMAND MIXER,BLOCK12:ZONE4 WATER CONVECTOR HOT WATER OUTLET NODE,HW LOOP DEMAND SIDE OUTLET BRANCH PIPE INLET,HW LOOP,Demand
     Plant Loop Connector Branches,8,Mixer,HW LOOP DEMAND MIXER,BLOCK12:ZONE2 WATER CONVECTOR HW LOOP DEMAND SIDE BRANCH,HW LOOP DEMAND SIDE OUTLET BRANCH,HW LOOP,Demand
     Plant Loop Connector Nodes,   8,Mixer,HW LOOP DEMAND MIXER,BLOCK12:ZONE2 WATER CONVECTOR HOT WATER OUTLET NODE,HW LOOP DEMAND SIDE OUTLET BRANCH PIPE INLET,HW LOOP,Demand
 Plant Loop,HW LOOP,Supply,HW LOOP SUPPLY SIDE INLET,HW LOOP SUPPLY SIDE OUTLET,HW LOOP SUPPLY SIDE BRANCHES,HW LOOP SUPPLY SIDE CONNECTORS
   Plant Loop Connector,Splitter,HW LOOP SUPPLY SPLITTER,HW LOOP,Supply,2
     Plant Loop Connector Branches,1,Splitter,HW LOOP SUPPLY SPLITTER,HW LOOP SUPPLY SIDE INLET BRANCH,HW LOOP SUPPLY SIDE BYPASS BRANCH,HW LOOP,Supply
     Plant Loop Connector Nodes,   1,Splitter,HW LOOP SUPPLY SPLITTER,HW LOOP SUPPLY PUMP WATER OUTLET NODE,HW LOOP SUPPLY SIDE BYPASS PIPE INLET NODE,HW LOOP,Supply
     Plant Loop Connector Branches,2,Splitter,HW LOOP SUPPLY SPLITTER,HW LOOP SUPPLY SIDE INLET BRANCH,DISTRICT HEATING HW LOOP SUPPLY SIDE BRANCH,HW LOOP,Supply
     Plant Loop Connector Nodes,   2,Splitter,HW LOOP SUPPLY SPLITTER,HW LOOP SUPPLY PUMP WATER OUTLET NODE,DISTRICT HEATING WATER INLET NODE,HW LOOP,Supply
   Plant Loop Connector,Mixer,HW LOOP SUPPLY MIXER,HW LOOP,Supply,2
     Plant Loop Connector Branches,1,Mixer,HW LOOP SUPPLY MIXER,HW LOOP SUPPLY SIDE BYPASS BRANCH,HW LOOP SUPPLY SIDE OUTLET BRANCH,HW LOOP,Supply
     Plant Loop Connector Nodes,   1,Mixer,HW LOOP SUPPLY MIXER,HW LOOP SUPPLY SIDE BYPASS PIPE OUTLET NODE,HW LOOP SUPPLY SIDE OUTLET BRANCH PIPE INLET,HW LOOP,Supply
     Plant Loop Connector Branches,2,Mixer,HW LOOP SUPPLY MIXER,DISTRICT HEATING HW LOOP SUPPLY SIDE BRANCH,HW LOOP SUPPLY SIDE OUTLET BRANCH,HW LOOP,Supply
     Plant Loop Connector Nodes,   2,Mixer,HW LOOP SUPPLY MIXER,DISTRICT HEATING WATER OUTLET NODE,HW LOOP SUPPLY SIDE OUTLET BRANCH PIPE INLET,HW LOOP,Supply
 Plant Loop Supply Connection,HW LOOP,HW LOOP SUPPLY SIDE OUTLET,HW LOOP DEMAND SIDE INLET
 Plant Loop Return Connection,HW LOOP,HW LOOP DEMAND SIDE OUTLET,HW LOOP SUPPLY SIDE INLET
 Plant Loop,CHW LOOP,Demand,CHW LOOP DEMAND SIDE INLET,CHW LOOP DEMAND SIDE OUTLET,CHW LOOP DEMAND SIDE BRANCHES,CHW LOOP DEMAND SIDE CONNECTORS
   Plant Loop Connector,Splitter,CHW LOOP DEMAND SPLITTER,CHW LOOP,Demand,3
     Plant Loop Connector Branches,1,Splitter,CHW LOOP DEMAND SPLITTER,CHW LOOP DEMAND SIDE INLET BRANCH,CHW LOOP DEMAND SIDE BYPASS BRANCH,CHW LOOP,Demand
     Plant Loop Connector Nodes,   1,Splitter,CHW LOOP DEMAND SPLITTER,CHW LOOP DEMAND SIDE INLET BRANCH PIPE OUTLET,CHW LOOP DEMAND SIDE BYPASS PIPE INLET NODE,CHW LOOP,Demand
     Plant Loop Connector Branches,2,Splitter,CHW LOOP DEMAND SPLITTER,CHW LOOP DEMAND SIDE INLET BRANCH,AIR LOOP AHU COOLING COIL CHW LOOP DEMAND SIDE BRANCH,CHW LOOP,Demand
     Plant Loop Connector Nodes,   2,Splitter,CHW LOOP DEMAND SPLITTER,CHW LOOP DEMAND SIDE INLET BRANCH PIPE OUTLET,AIR LOOP AHU COOLING COIL WATER INLET NODE,CHW LOOP,Demand
     Plant Loop Connector Branches,3,Splitter,CHW LOOP DEMAND SPLITTER,CHW LOOP DEMAND SIDE INLET BRANCH,HX CHW LOOP DEMAND SIDE BRANCH,CHW LOOP,Demand
     Plant Loop Connector Nodes,   3,Splitter,CHW LOOP DEMAND SPLITTER,CHW LOOP DEMAND SIDE INLET BRANCH PIPE OUTLET,HX DEMAND SIDE INLET NODE,CHW LOOP,Demand
   Plant Loop Connector,Mixer,CHW LOOP DEMAND MIXER,CHW LOOP,Demand,3
     Plant Loop Connector Branches,1,Mixer,CHW LOOP DEMAND MIXER,AIR LOOP AHU COOLING COIL CHW LOOP DEMAND SIDE BRANCH,CHW LOOP DEMAND SIDE OUTLET BRANCH,CHW LOOP,Demand
     Plant Loop Connector Nodes,   1,Mixer,CHW LOOP DEMAND MIXER,AIR LOOP AHU COOLING COIL WATER OUTLET NODE,CHW LOOP DEMAND SIDE OUTLET BRANCH PIPE INLET,CHW LOOP,Demand
     Plant Loop Connector Branches,2,Mixer,CHW LOOP DEMAND MIXER,CHW LOOP DEMAND SIDE BYPASS BRANCH,CHW LOOP DEMAND SIDE OUTLET BRANCH,CHW LOOP,Demand
     Plant Loop Connector Nodes,   2,Mixer,CHW LOOP DEMAND MIXER,CHW LOOP DEMAND SIDE BYPASS PIPE OUTLET NODE,CHW LOOP DEMAND SIDE OUTLET BRANCH PIPE INLET,CHW LOOP,Demand
     Plant Loop Connector Branches,3,Mixer,CHW LOOP DEMAND MIXER,HX CHW LOOP DEMAND SIDE BRANCH,CHW LOOP DEMAND SIDE OUTLET BRANCH,CHW LOOP,Demand
     Plant Loop Connector Nodes,   3,Mixer,CHW LOOP DEMAND MIXER,HX DEMAND SIDE OUTLET NODE,CHW LOOP DEMAND SIDE OUTLET BRANCH PIPE INLET,CHW LOOP,Demand
 Plant Loop,CHW LOOP,Supply,CHW LOOP SUPPLY SIDE INLET,CHW LOOP SUPPLY SIDE OUTLET,CHW LOOP SUPPLY SIDE BRANCHES,CHW LOOP SUPPLY SIDE CONNECTORS
   Plant Loop Connector,Splitter,CHW LOOP SUPPLY SPLITTER,CHW LOOP,Supply,2
     Plant Loop Connector Branches,1,Splitter,CHW LOOP SUPPLY SPLITTER,CHW LOOP SUPPLY SIDE INLET BRANCH,CHW LOOP SUPPLY SIDE BYPASS BRANCH,CHW LOOP,Supply
     Plant Loop Connector Nodes,   1,Splitter,CHW LOOP SUPPLY SPLITTER,CHW LOOP SUPPLY PUMP WATER OUTLET NODE,CHW LOOP SUPPLY SIDE BYPASS PIPE INLET NODE,CHW LOOP,Supply
     Plant Loop Connector Branches,2,Splitter,CHW LOOP SUPPLY SPLITTER,CHW LOOP SUPPLY SIDE INLET BRANCH,DISTRICT COOLING CHW LOOP SUPPLY SIDE BRANCH,CHW LOOP,Supply
     Plant Loop Connector Nodes,   2,Splitter,CHW LOOP SUPPLY SPLITTER,CHW LOOP SUPPLY PUMP WATER OUTLET NODE,DISTRICT COOLING WATER INLET NODE,CHW LOOP,Supply
   Plant Loop Connector,Mixer,CHW LOOP SUPPLY MIXER,CHW LOOP,Supply,2
     Plant Loop Connector Branches,1,Mixer,CHW LOOP SUPPLY MIXER,CHW LOOP SUPPLY SIDE BYPASS BRANCH,CHW LOOP SUPPLY SIDE OUTLET BRANCH,CHW LOOP,Supply
     Plant Loop Connector Nodes,   1,Mixer,CHW LOOP SUPPLY MIXER,CHW LOOP SUPPLY SIDE BYPASS PIPE OUTLET NODE,CHW LOOP SUPPLY SIDE OUTLET BRANCH PIPE INLET,CHW LOOP,Supply
     Plant Loop Connector Branches,2,Mixer,CHW LOOP SUPPLY MIXER,DISTRICT COOLING CHW LOOP SUPPLY SIDE BRANCH,CHW LOOP SUPPLY SIDE OUTLET BRANCH,CHW LOOP,Supply
     Plant Loop Connector Nodes,   2,Mixer,CHW LOOP SUPPLY MIXER,DISTRICT COOLING WATER OUTLET NODE,CHW LOOP SUPPLY SIDE OUTLET BRANCH PIPE INLET,CHW LOOP,Supply
 Plant Loop Supply Connection,CHW LOOP,CHW LOOP SUPPLY SIDE OUTLET,CHW LOOP DEMAND SIDE INLET
 Plant Loop Return Connection,CHW LOOP,CHW LOOP DEMAND SIDE OUTLET,CHW LOOP SUPPLY SIDE INLET
 Plant Loop,CHW BEAM LOOP,Demand,CHW BEAM LOOP DEMAND SIDE INLET,CHW BEAM LOOP DEMAND SIDE OUTLET,CHW BEAM LOOP DEMAND SIDE BRANCHES,CHW BEAM LOOP DEMAND SIDE CONNECTORS
   Plant Loop Connector,Splitter,CHW BEAM LOOP DEMAND SPLITTER,CHW BEAM LOOP,Demand,8
     Plant Loop Connector Branches,1,Splitter,CHW BEAM LOOP DEMAND SPLITTER,CHW BEAM LOOP DEMAND SIDE INLET BRANCH,CHW BEAM LOOP DEMAND SIDE BYPASS BRANCH,CHW BEAM LOOP,Demand
     Plant Loop Connector Nodes,   1,Splitter,CHW BEAM LOOP DEMAND SPLITTER,CHW BEAM LOOP DEMAND SIDE INLET BRANCH PIPE OUTLET,CHW BEAM LOOP DEMAND SIDE BYPASS PIPE INLET NODE,CHW BEAM LOOP,Demand
     Plant Loop Connector Branches,2,Splitter,CHW BEAM LOOP DEMAND SPLITTER,CHW BEAM LOOP DEMAND SIDE INLET BRANCH,BLOCK12:ZONE3 COOLED BEAM CHW BEAM LOOP DEMAND SIDE BRANCH,CHW BEAM LOOP,Demand
     Plant Loop Connector Nodes,   2,Splitter,CHW BEAM LOOP DEMAND SPLITTER,CHW BEAM LOOP DEMAND SIDE INLET BRANCH PIPE OUTLET,BLOCK12:ZONE3 COOLED BEAM CHW INLET NODE,CHW BEAM LOOP,Demand
     Plant Loop Connector Branches,3,Splitter,CHW BEAM LOOP DEMAND SPLITTER,CHW BEAM LOOP DEMAND SIDE INLET BRANCH,BLOCK12:ZONE1 COOLED BEAM CHW BEAM LOOP DEMAND SIDE BRANCH,CHW BEAM LOOP,Demand
     Plant Loop Connector Nodes,   3,Splitter,CHW BEAM LOOP DEMAND SPLITTER,CHW BEAM LOOP DEMAND SIDE INLET BRANCH PIPE OUTLET,BLOCK12:ZONE1 COOLED BEAM CHW INLET NODE,CHW BEAM LOOP,Demand
     Plant Loop Connector Branches,4,Splitter,CHW BEAM LOOP DEMAND SPLITTER,CHW BEAM LOOP DEMAND SIDE INLET BRANCH,BLOCK12:ZONE10 COOLED BEAM CHW BEAM LOOP DEMAND SIDE BRANCH,CHW BEAM LOOP,Demand
     Plant Loop Connector Nodes,   4,Splitter,CHW BEAM LOOP DEMAND SPLITTER,CHW BEAM LOOP DEMAND SIDE INLET BRANCH PIPE OUTLET,BLOCK12:ZONE10 COOLED BEAM CHW INLET NODE,CHW BEAM LOOP,Demand
     Plant Loop Connector Branches,5,Splitter,CHW BEAM LOOP DEMAND SPLITTER,CHW BEAM LOOP DEMAND SIDE INLET BRANCH,BLOCK12:ZONE6 COOLED BEAM CHW BEAM LOOP DEMAND SIDE BRANCH,CHW BEAM LOOP,Demand
     Plant Loop Connector Nodes,   5,Splitter,CHW BEAM LOOP DEMAND SPLITTER,CHW BEAM LOOP DEMAND SIDE INLET BRANCH PIPE OUTLET,BLOCK12:ZONE6 COOLED BEAM CHW INLET NODE,CHW BEAM LOOP,Demand
     Plant Loop Connector Branches,6,Splitter,CHW BEAM LOOP DEMAND SPLITTER,CHW BEAM LOOP DEMAND SIDE INLET BRANCH,BLOCK12:ZONE5 COOLED BEAM CHW BEAM LOOP DEMAND SIDE BRANCH,CHW BEAM LOOP,Demand
     Plant Loop Connector Nodes,   6,Splitter,CHW BEAM LOOP DEMAND SPLITTER,CHW BEAM LOOP DEMAND SIDE INLET BRANCH PIPE OUTLET,BLOCK12:ZONE5 COOLED BEAM CHW INLET NODE,CHW BEAM LOOP,Demand
     Plant Loop Connector Branches,7,Splitter,CHW BEAM LOOP DEMAND SPLITTER,CHW BEAM LOOP DEMAND SIDE INLET BRANCH,BLOCK12:ZONE4 COOLED BEAM CHW BEAM LOOP DEMAND SIDE BRANCH,CHW BEAM LOOP,Demand
     Plant Loop Connector Nodes,   7,Splitter,CHW BEAM LOOP DEMAND SPLITTER,CHW BEAM LOOP DEMAND SIDE INLET BRANCH PIPE OUTLET,BLOCK12:ZONE4 COOLED BEAM CHW INLET NODE,CHW BEAM LOOP,Demand
     Plant Loop Connector Branches,8,Splitter,CHW BEAM LOOP DEMAND SPLITTER,CHW BEAM LOOP DEMAND SIDE INLET BRANCH,BLOCK12:ZONE2 COOLED BEAM CHW BEAM LOOP DEMAND SIDE BRANCH,CHW BEAM LOOP,Demand
     Plant Loop Connector Nodes,   8,Splitter,CHW BEAM LOOP DEMAND SPLITTER,CHW BEAM LOOP DEMAND SIDE INLET BRANCH PIPE OUTLET,BLOCK12:ZONE2 COOLED BEAM CHW INLET NODE,CHW BEAM LOOP,Demand
   Plant Loop Connector,Mixer,CHW BEAM LOOP DEMAND MIXER,CHW BEAM LOOP,Demand,8
     Plant Loop Connector Branches,1,Mixer,CHW BEAM LOOP DEMAND MIXER,CHW BEAM LOOP DEMAND SIDE BYPASS BRANCH,CHW BEAM LOOP DEMAND SIDE OUTLET BRANCH,CHW BEAM LOOP,Demand
     Plant Loop Connector Nodes,   1,Mixer,CHW BEAM LOOP DEMAND MIXER,CHW BEAM LOOP DEMAND SIDE BYPASS PIPE OUTLET NODE,CHW BEAM LOOP DEMAND SIDE OUTLET BRANCH PIPE INLET,CHW BEAM LOOP,Demand
     Plant Loop Connector Branches,2,Mixer,CHW BEAM LOOP DEMAND MIXER,BLOCK12:ZONE3 COOLED BEAM CHW BEAM LOOP DEMAND SIDE BRANCH,CHW BEAM LOOP DEMAND SIDE OUTLET BRANCH,CHW BEAM LOOP,Demand
     Plant Loop Connector Nodes,   2,Mixer,CHW BEAM LOOP DEMAND MIXER,BLOCK12:ZONE3 COOLED BEAM CHW OUTLET NODE,CHW BEAM LOOP DEMAND SIDE OUTLET BRANCH PIPE INLET,CHW BEAM LOOP,Demand
     Plant Loop Connector Branches,3,Mixer,CHW BEAM LOOP DEMAND MIXER,BLOCK12:ZONE1 COOLED BEAM CHW BEAM LOOP DEMAND SIDE BRANCH,CHW BEAM LOOP DEMAND SIDE OUTLET BRANCH,CHW BEAM LOOP,Demand
     Plant Loop Connector Nodes,   3,Mixer,CHW BEAM LOOP DEMAND MIXER,BLOCK12:ZONE1 COOLED BEAM CHW OUTLET NODE,CHW BEAM LOOP DEMAND SIDE OUTLET BRANCH PIPE INLET,CHW BEAM LOOP,Demand
     Plant Loop Connector Branches,4,Mixer,CHW BEAM LOOP DEMAND MIXER,BLOCK12:ZONE10 COOLED BEAM CHW BEAM LOOP DEMAND SIDE BRANCH,CHW BEAM LOOP DEMAND SIDE OUTLET BRANCH,CHW BEAM LOOP,Demand
     Plant Loop Connector Nodes,   4,Mixer,CHW BEAM LOOP DEMAND MIXER,BLOCK12:ZONE10 COOLED BEAM CHW OUTLET NODE,CHW BEAM LOOP DEMAND SIDE OUTLET BRANCH PIPE INLET,CHW BEAM LOOP,Demand
     Plant Loop Connector Branches,5,Mixer,CHW BEAM LOOP DEMAND MIXER,BLOCK12:ZONE6 COOLED BEAM CHW BEAM LOOP DEMAND SIDE BRANCH,CHW BEAM LOOP DEMAND SIDE OUTLET BRANCH,CHW BEAM LOOP,Demand
     Plant Loop Connector Nodes,   5,Mixer,CHW BEAM LOOP DEMAND MIXER,BLOCK12:ZONE6 COOLED BEAM CHW OUTLET NODE,CHW BEAM LOOP DEMAND SIDE OUTLET BRANCH PIPE INLET,CHW BEAM LOOP,Demand
     Plant Loop Connector Branches,6,Mixer,CHW BEAM LOOP DEMAND MIXER,BLOCK12:ZONE5 COOLED BEAM CHW BEAM LOOP DEMAND SIDE BRANCH,CHW BEAM LOOP DEMAND SIDE OUTLET BRANCH,CHW BEAM LOOP,Demand
     Plant Loop Connector Nodes,   6,Mixer,CHW BEAM LOOP DEMAND MIXER,BLOCK12:ZONE5 COOLED BEAM CHW OUTLET NODE,CHW BEAM LOOP DEMAND SIDE OUTLET BRANCH PIPE INLET,CHW BEAM LOOP,Demand
     Plant Loop Connector Branches,7,Mixer,CHW BEAM LOOP DEMAND MIXER,BLOCK12:ZONE4 COOLED BEAM CHW BEAM LOOP DEMAND SIDE BRANCH,CHW BEAM LOOP DEMAND SIDE OUTLET BRANCH,CHW BEAM LOOP,Demand
     Plant Loop Connector Nodes,   7,Mixer,CHW BEAM LOOP DEMAND MIXER,BLOCK12:ZONE4 COOLED BEAM CHW OUTLET NODE,CHW BEAM LOOP DEMAND SIDE OUTLET BRANCH PIPE INLET,CHW BEAM LOOP,Demand
     Plant Loop Connector Branches,8,Mixer,CHW BEAM LOOP DEMAND MIXER,BLOCK12:ZONE2 COOLED BEAM CHW BEAM LOOP DEMAND SIDE BRANCH,CHW BEAM LOOP DEMAND SIDE OUTLET BRANCH,CHW BEAM LOOP,Demand
     Plant Loop Connector Nodes,   8,Mixer,CHW BEAM LOOP DEMAND MIXER,BLOCK12:ZONE2 COOLED BEAM CHW OUTLET NODE,CHW BEAM LOOP DEMAND SIDE OUTLET BRANCH PIPE INLET,CHW BEAM LOOP,Demand
 Plant Loop,CHW BEAM LOOP,Supply,CHW BEAM LOOP SUPPLY SIDE INLET,CHW BEAM LOOP SUPPLY SIDE OUTLET,CHW BEAM LOOP SUPPLY SIDE BRANCHES,CHW BEAM LOOP SUPPLY SIDE CONNECTORS
   Plant Loop Connector,Splitter,CHW BEAM LOOP SUPPLY SPLITTER,CHW BEAM LOOP,Supply,2
     Plant Loop Connector Branches,1,Splitter,CHW BEAM LOOP SUPPLY SPLITTER,CHW BEAM LOOP SUPPLY SIDE INLET BRANCH,CHW BEAM LOOP SUPPLY SIDE BYPASS BRANCH,CHW BEAM LOOP,Supply
     Plant Loop Connector Nodes,   1,Splitter,CHW BEAM LOOP SUPPLY SPLITTER,CHW BEAM LOOP SUPPLY PUMP WATER OUTLET NODE,CHW BEAM LOOP SUPPLY SIDE BYPASS PIPE INLET NODE,CHW BEAM LOOP,Supply
     Plant Loop Connector Branches,2,Splitter,CHW BEAM LOOP SUPPLY SPLITTER,CHW BEAM LOOP SUPPLY SIDE INLET BRANCH,HX CHW BEAM LOOP SUPPLY SIDE BRANCH,CHW BEAM LOOP,Supply
     Plant Loop Connector Nodes,   2,Splitter,CHW BEAM LOOP SUPPLY SPLITTER,CHW BEAM LOOP SUPPLY PUMP WATER OUTLET NODE,HX SUPPLY SIDE INLET NODE,CHW BEAM LOOP,Supply
   Plant Loop Connector,Mixer,CHW BEAM LOOP SUPPLY MIXER,CHW BEAM LOOP,Supply,2
     Plant Loop Connector Branches,1,Mixer,CHW BEAM LOOP SUPPLY MIXER,CHW BEAM LOOP SUPPLY SIDE BYPASS BRANCH,CHW BEAM LOOP SUPPLY SIDE OUTLET BRANCH,CHW BEAM LOOP,Supply
     Plant Loop Connector Nodes,   1,Mixer,CHW BEAM LOOP SUPPLY MIXER,CHW BEAM LOOP SUPPLY SIDE BYPASS PIPE OUTLET NODE,CHW BEAM LOOP SUPPLY SIDE OUTLET BRANCH PIPE INLET,CHW BEAM LOOP,Supply
     Plant Loop Connector Branches,2,Mixer,CHW BEAM LOOP SUPPLY MIXER,HX CHW BEAM LOOP SUPPLY SIDE BRANCH,CHW BEAM LOOP SUPPLY SIDE OUTLET BRANCH,CHW BEAM LOOP,Supply
     Plant Loop Connector Nodes,   2,Mixer,CHW BEAM LOOP SUPPLY MIXER,HX SUPPLY SIDE OUTLET NODE,CHW BEAM LOOP SUPPLY SIDE OUTLET BRANCH PIPE INLET,CHW BEAM LOOP,Supply
 Plant Loop Supply Connection,CHW BEAM LOOP,CHW BEAM LOOP SUPPLY SIDE OUTLET,CHW BEAM LOOP DEMAND SIDE INLET
 Plant Loop Return Connection,CHW BEAM LOOP,CHW BEAM LOOP DEMAND SIDE OUTLET,CHW BEAM LOOP SUPPLY SIDE INLET
! ===============================================================
! <# Condenser Loops>,<Number of Condenser Loops>
 #Condenser Loops,0
! <Condenser Loop>,<Condenser Loop Name>,<Loop Type>,<Inlet Node Name>,<Outlet Node Name>,<Branch List>,<Connector List>
! <Condenser Loop Connector>,<Connector Type>,<Connector Name>,<Loop Name>,<Loop Type>,<Number of Inlets/Outlets>
! <Condenser Loop Connector Branches>,<Connector Node Count>,<Connector Type>,<Connector Name>,<Inlet Branch>,<Outlet Branch>,<Loop Name>,<Loop Type>
! <Condenser Loop Connector Nodes>,<Connector Node Count>,<Connector Type>,<Connector Name>,<Inlet Node>,<Outlet Node>,<Loop Name>,<Loop Type>
! <Condenser Loop Supply Connection>,<Condenser Loop Name>,<Supply Side Outlet Node Name>,<Demand Side Inlet Node Name>
! <Condenser Loop Return Connection>,<Condenser Loop Name>,<Demand Side Outlet Node Name>,<Supply Side Inlet Node Name>
! ===============================================================
! <# Controlled Zones>,<Number of Controlled Zones>
 #Controlled Zones,7
! <Controlled Zone>,<Controlled Zone Name>,<Equip List Name>,<Control List Name>,<Zone Node Name>,<Return Air Node Name>,<# Inlet Nodes>,<# Exhaust Nodes>
! <Controlled Zone Inlet>,<Inlet Node Count>,<Controlled Zone Name>,<Supply Air Inlet Node Name>,<SD Sys:Cooling/Heating [DD:Cooling] Inlet Node Name>,<DD Sys:Heating Inlet Node Name>
! <Controlled Zone Exhaust>,<Exhaust Node Count>,<Controlled Zone Name>,<Exhaust Air Node Name>
 Controlled Zone,BLOCK12:ZONE1,BLOCK12:ZONE1 EQUIPMENT,,BLOCK12:ZONE1 ZONE AIR NODE,AIR LOOP ZONE MIXER INLET NODE 2,1,0
   Controlled Zone Inlet,1,BLOCK12:ZONE1,BLOCK12:ZONE1 COOLED BEAM SUPPLY INLET,AIR LOOP ZONE SPLITTER OUTLET NODE 2,N/A
 Controlled Zone,BLOCK12:ZONE10,BLOCK12:ZONE10 EQUIPMENT,,BLOCK12:ZONE10 ZONE AIR NODE,AIR LOOP ZONE MIXER INLET NODE 3,1,0
   Controlled Zone Inlet,1,BLOCK12:ZONE10,BLOCK12:ZONE10 COOLED BEAM SUPPLY INLET,AIR LOOP ZONE SPLITTER OUTLET NODE 3,N/A
 Controlled Zone,BLOCK12:ZONE6,BLOCK12:ZONE6 EQUIPMENT,,BLOCK12:ZONE6 ZONE AIR NODE,AIR LOOP ZONE MIXER INLET NODE 4,1,0
   Controlled Zone Inlet,1,BLOCK12:ZONE6,BLOCK12:ZONE6 COOLED BEAM SUPPLY INLET,AIR LOOP ZONE SPLITTER OUTLET NODE 4,N/A
 Controlled Zone,BLOCK12:ZONE5,BLOCK12:ZONE5 EQUIPMENT,,BLOCK12:ZONE5 ZONE AIR NODE,AIR LOOP ZONE MIXER INLET NODE 5,1,0
   Controlled Zone Inlet,1,BLOCK12:ZONE5,BLOCK12:ZONE5 COOLED BEAM SUPPLY INLET,AIR LOOP ZONE SPLITTER OUTLET NODE 5,N/A
 Controlled Zone,BLOCK12:ZONE4,BLOCK12:ZONE4 EQUIPMENT,,BLOCK12:ZONE4 ZONE AIR NODE,AIR LOOP ZONE MIXER INLET NODE 6,1,0
   Controlled Zone Inlet,1,BLOCK12:ZONE4,BLOCK12:ZONE4 COOLED BEAM SUPPLY INLET,AIR LOOP ZONE SPLITTER OUTLET NODE 6,N/A
 Controlled Zone,BLOCK12:ZONE3,BLOCK12:ZONE3 EQUIPMENT,,BLOCK12:ZONE3 ZONE AIR NODE,AIR LOOP ZONE MIXER INLET NODE 1,1,0
   Controlled Zone Inlet,1,BLOCK12:ZONE3,BLOCK12:ZONE3 COOLED BEAM SUPPLY INLET,AIR LOOP ZONE SPLITTER OUTLET NODE 1,N/A
 Controlled Zone,BLOCK12:ZONE2,BLOCK12:ZONE2 EQUIPMENT,,BLOCK12:ZONE2 ZONE AIR NODE,AIR LOOP ZONE MIXER INLET NODE 7,1,0
   Controlled Zone Inlet,1,BLOCK12:ZONE2,BLOCK12:ZONE2 COOLED BEAM SUPPLY INLET,AIR LOOP ZONE SPLITTER OUTLET NODE 7,N/A
! ===============================================================
! <#Zone Equipment Lists>,<Number of Zone Equipment Lists>
 #Zone Equipment Lists,7
! <Zone Equipment List>,<Zone Equipment List Count>,<Zone Equipment List Name>,<Zone Name>,<Number of Components>
! <Zone Equipment Component>,<Component Count>,<Component Type>,<Component Name>,<Zone Name>,<Heating Priority>,<Cooling Priority>
 Zone Equipment List,1,BLOCK12:ZONE1 EQUIPMENT,BLOCK12:ZONE1,2
   Zone Equipment Component,1,ZONEHVAC:BASEBOARD:CONVECTIVE:WATER,BLOCK12:ZONE1 WATER CONVECTOR,BLOCK12:ZONE1,2,2
   Zone Equipment Component,2,ZONEHVAC:AIRDISTRIBUTIONUNIT,BLOCK12:ZONE1 COOLED BEAM ADU,BLOCK12:ZONE1,1,1
 Zone Equipment List,2,BLOCK12:ZONE10 EQUIPMENT,BLOCK12:ZONE10,2
   Zone Equipment Component,1,ZONEHVAC:BASEBOARD:CONVECTIVE:WATER,BLOCK12:ZONE10 WATER CONVECTOR,BLOCK12:ZONE10,2,2
   Zone Equipment Component,2,ZONEHVAC:AIRDISTRIBUTIONUNIT,BLOCK12:ZONE10 COOLED BEAM ADU,BLOCK12:ZONE10,1,1
 Zone Equipment List,4,BLOCK12:ZONE6 EQUIPMENT,BLOCK12:ZONE6,2
   Zone Equipment Component,1,ZONEHVAC:BASEBOARD:CONVECTIVE:WATER,BLOCK12:ZONE6 WATER CONVECTOR,BLOCK12:ZONE6,2,2
   Zone Equipment Component,2,ZONEHVAC:AIRDISTRIBUTIONUNIT,BLOCK12:ZONE6 COOLED BEAM ADU,BLOCK12:ZONE6,1,1
 Zone Equipment List,5,BLOCK12:ZONE5 EQUIPMENT,BLOCK12:ZONE5,2
   Zone Equipment Component,1,ZONEHVAC:BASEBOARD:CONVECTIVE:WATER,BLOCK12:ZONE5 WATER CONVECTOR,BLOCK12:ZONE5,2,2
   Zone Equipment Component,2,ZONEHVAC:AIRDISTRIBUTIONUNIT,BLOCK12:ZONE5 COOLED BEAM ADU,BLOCK12:ZONE5,1,1
 Zone Equipment List,6,BLOCK12:ZONE4 EQUIPMENT,BLOCK12:ZONE4,2
   Zone Equipment Component,1,ZONEHVAC:BASEBOARD:CONVECTIVE:WATER,BLOCK12:ZONE4 WATER CONVECTOR,BLOCK12:ZONE4,2,2
   Zone Equipment Component,2,ZONEHVAC:AIRDISTRIBUTIONUNIT,BLOCK12:ZONE4 COOLED BEAM ADU,BLOCK12:ZONE4,1,1
 Zone Equipment List,7,BLOCK12:ZONE3 EQUIPMENT,BLOCK12:ZONE3,2
   Zone Equipment Component,1,ZONEHVAC:BASEBOARD:CONVECTIVE:WATER,BLOCK12:ZONE3 WATER CONVECTOR,BLOCK12:ZONE3,2,2
   Zone Equipment Component,2,ZONEHVAC:AIRDISTRIBUTIONUNIT,BLOCK12:ZONE3 COOLED BEAM ADU,BLOCK12:ZONE3,1,1
 Zone Equipment List,10,BLOCK12:ZONE2 EQUIPMENT,BLOCK12:ZONE2,2
   Zone Equipment Component,1,ZONEHVAC:BASEBOARD:CONVECTIVE:WATER,BLOCK12:ZONE2 WATER CONVECTOR,BLOCK12:ZONE2,2,2
   Zone Equipment Component,2,ZONEHVAC:AIRDISTRIBUTIONUNIT,BLOCK12:ZONE2 COOLED BEAM ADU,BLOCK12:ZONE2,1,1
! ===============================================================
! <#AirLoopHVACs>,<Number of AirLoopHVACs>
 #AirLoopHVACs,1
! <AirLoopHVAC>,<Air Loop Name>,<# Return Nodes>,<# Supply Nodes>,<# Zones Cooled>,<# Zones Heated>,<Outdoor Air Used>
! <AirLoop Return Connections>,<Connection Count>,<AirLoopHVAC Name>,<Zn Eqp Return Node #>,<Zn Eqp Return Node Name>,<AirLoop Return Node #>,<Air Loop Return Node Name>
! <AirLoop Supply Connections>,<Connection Count>,<AirLoopHVAC Name>,<Zn Eqp Supply Node #>,<Zn Eqp Supply Node Name>,<AirLoop Supply Node #>,<Air Loop Supply Node Name>
! <Cooled Zone Info>,<Cooled Zone Count>,<Cooled Zone Name>,<Cooled Zone Inlet Node #>,<Cooled Zone Inlet Node Name>,<AirLoopHVAC Name>
! <Heated Zone Info>,<Heated Zone Count>,<Heated Zone Name>,<Heated Zone Inlet Node #>,<Heated Zone Inlet Node Name>,<AirLoopHVAC Name>
! <Outdoor Air Connections>,<OA Inlet Node #>,<OA Return Air Inlet Node Name>,<OA Outlet Node #>,<OA Mixed Air Outlet Node Name>,<AirLoopHVAC Name>
! <AirLoopHVAC Connector>,<Connector Type>,<Connector Name>,<Loop Name>,<Loop Type>,<Number of Inlets/Outlets>
! <AirLoopHVAC Connector Branches>,<Connector Node Count>,<Connector Type>,<Connector Name>,<Inlet Branch>,<Outlet Branch>,<Loop Name>,<Loop Type>
! <AirLoopHVAC Connector Nodes>,<Connector Node Count>,<Connector Type>,<Connector Name>,<Inlet Node>,<Outlet Node>,<Loop Name>,<Loop Type>
 AirLoopHVAC,AIR LOOP,1,1,7,0,Yes
   AirLoop Return Connections,1,AIR LOOP,105,AIR LOOP DEMAND SIDE OUTLET,15,AIR LOOP SUPPLY SIDE INLET
   AirLoop Supply Connections,1,AIR LOOP,1,AIR LOOP DEMAND SIDE INLET 1,2,AIR LOOP SUPPLY SIDE OUTLET 1
   Cooled Zone Info,1,BLOCK12:ZONE3,3,BLOCK12:ZONE3 COOLED BEAM SUPPLY INLET,AIR LOOP
   Cooled Zone Info,2,BLOCK12:ZONE1,4,BLOCK12:ZONE1 COOLED BEAM SUPPLY INLET,AIR LOOP
   Cooled Zone Info,3,BLOCK12:ZONE10,5,BLOCK12:ZONE10 COOLED BEAM SUPPLY INLET,AIR LOOP
   Cooled Zone Info,4,BLOCK12:ZONE6,6,BLOCK12:ZONE6 COOLED BEAM SUPPLY INLET,AIR LOOP
   Cooled Zone Info,5,BLOCK12:ZONE5,7,BLOCK12:ZONE5 COOLED BEAM SUPPLY INLET,AIR LOOP
   Cooled Zone Info,6,BLOCK12:ZONE4,8,BLOCK12:ZONE4 COOLED BEAM SUPPLY INLET,AIR LOOP
   Cooled Zone Info,7,BLOCK12:ZONE2,9,BLOCK12:ZONE2 COOLED BEAM SUPPLY INLET,AIR LOOP
   Outdoor Air Connections,16,AIR LOOP AHU EXTRACT FAN AIR OUTLET NODE,17,AIR LOOP AHU MIXED AIR OUTLET,AIR LOOP
! ===============================================================
! <#Parent Node Connections>,<Number of Parent Node Connections>
 #Parent Node Connections,108
! <Parent Node Connection>,<Node Name>,<Node ObjectType>,<Node ObjectName>,<Node ConnectionType>,<Node FluidStream>
 Parent Node Connection,AIR LOOP SUPPLY SIDE INLET,BRANCH,AIR LOOP AHU MAIN BRANCH,Inlet,1
 Parent Node Connection,AIR LOOP AHU EXTRACT FAN AIR OUTLET NODE,BRANCH,AIR LOOP AHU MAIN BRANCH,Internal,1
 Parent Node Connection,AIR LOOP AHU MIXED AIR OUTLET,BRANCH,AIR LOOP AHU MAIN BRANCH,Internal,1
 Parent Node Connection,AIR LOOP AHU COOLING COIL AIR OUTLET NODE,BRANCH,AIR LOOP AHU MAIN BRANCH,Internal,1
 Parent Node Connection,AIR LOOP AHU HEATING COIL AIR OUTLET NODE,BRANCH,AIR LOOP AHU MAIN BRANCH,Internal,1
 Parent Node Connection,AIR LOOP SUPPLY SIDE OUTLET 1,BRANCH,AIR LOOP AHU MAIN BRANCH,Outlet,1
 Parent Node Connection,HW LOOP DEMAND SIDE INLET,BRANCH,HW LOOP DEMAND SIDE INLET BRANCH,Inlet,1
 Parent Node Connection,HW LOOP DEMAND SIDE INLET BRANCH PIPE OUTLET,BRANCH,HW LOOP DEMAND SIDE INLET BRANCH,Outlet,1
 Parent Node Connection,HW LOOP DEMAND SIDE BYPASS PIPE INLET NODE,BRANCH,HW LOOP DEMAND SIDE BYPASS BRANCH,Inlet,1
 Parent Node Connection,HW LOOP DEMAND SIDE BYPASS PIPE OUTLET NODE,BRANCH,HW LOOP DEMAND SIDE BYPASS BRANCH,Outlet,1
 Parent Node Connection,BLOCK12:ZONE3 WATER CONVECTOR HOT WATER INLET NODE,BRANCH,BLOCK12:ZONE3 WATER CONVECTOR HW LOOP DEMAND SIDE BRANCH,Inlet,1
 Parent Node Connection,BLOCK12:ZONE3 WATER CONVECTOR HOT WATER OUTLET NODE,BRANCH,BLOCK12:ZONE3 WATER CONVECTOR HW LOOP DEMAND SIDE BRANCH,Outlet,1
 Parent Node Connection,BLOCK12:ZONE1 WATER CONVECTOR HOT WATER INLET NODE,BRANCH,BLOCK12:ZONE1 WATER CONVECTOR HW LOOP DEMAND SIDE BRANCH,Inlet,1
 Parent Node Connection,BLOCK12:ZONE1 WATER CONVECTOR HOT WATER OUTLET NODE,BRANCH,BLOCK12:ZONE1 WATER CONVECTOR HW LOOP DEMAND SIDE BRANCH,Outlet,1
 Parent Node Connection,BLOCK12:ZONE10 WATER CONVECTOR HOT WATER INLET NODE,BRANCH,BLOCK12:ZONE10 WATER CONVECTOR HW LOOP DEMAND SIDE BRANCH,Inlet,1
 Parent Node Connection,BLOCK12:ZONE10 WATER CONVECTOR HOT WATER OUTLET NODE,BRANCH,BLOCK12:ZONE10 WATER CONVECTOR HW LOOP DEMAND SIDE BRANCH,Outlet,1
 Parent Node Connection,BLOCK12:ZONE6 WATER CONVECTOR HOT WATER INLET NODE,BRANCH,BLOCK12:ZONE6 WATER CONVECTOR HW LOOP DEMAND SIDE BRANCH,Inlet,1
 Parent Node Connection,BLOCK12:ZONE6 WATER CONVECTOR HOT WATER OUTLET NODE,BRANCH,BLOCK12:ZONE6 WATER CONVECTOR HW LOOP DEMAND SIDE BRANCH,Outlet,1
 Parent Node Connection,BLOCK12:ZONE5 WATER CONVECTOR HOT WATER INLET NODE,BRANCH,BLOCK12:ZONE5 WATER CONVECTOR HW LOOP DEMAND SIDE BRANCH,Inlet,1
 Parent Node Connection,BLOCK12:ZONE5 WATER CONVECTOR HOT WATER OUTLET NODE,BRANCH,BLOCK12:ZONE5 WATER CONVECTOR HW LOOP DEMAND SIDE BRANCH,Outlet,1
 Parent Node Connection,BLOCK12:ZONE4 WATER CONVECTOR HOT WATER INLET NODE,BRANCH,BLOCK12:ZONE4 WATER CONVECTOR HW LOOP DEMAND SIDE BRANCH,Inlet,1
 Parent Node Connection,BLOCK12:ZONE4 WATER CONVECTOR HOT WATER OUTLET NODE,BRANCH,BLOCK12:ZONE4 WATER CONVECTOR HW LOOP DEMAND SIDE BRANCH,Outlet,1
 Parent Node Connection,BLOCK12:ZONE2 WATER CONVECTOR HOT WATER INLET NODE,BRANCH,BLOCK12:ZONE2 WATER CONVECTOR HW LOOP DEMAND SIDE BRANCH,Inlet,1
 Parent Node Connection,BLOCK12:ZONE2 WATER CONVECTOR HOT WATER OUTLET NODE,BRANCH,BLOCK12:ZONE2 WATER CONVECTOR HW LOOP DEMAND SIDE BRANCH,Outlet,1
 Parent Node Connection,HW LOOP DEMAND SIDE OUTLET BRANCH PIPE INLET,BRANCH,HW LOOP DEMAND SIDE OUTLET BRANCH,Inlet,1
 Parent Node Connection,HW LOOP DEMAND SIDE OUTLET,BRANCH,HW LOOP DEMAND SIDE OUTLET BRANCH,Outlet,1
 Parent Node Connection,HW LOOP SUPPLY SIDE INLET,BRANCH,HW LOOP SUPPLY SIDE INLET BRANCH,Inlet,1
 Parent Node Connection,HW LOOP SUPPLY PUMP WATER OUTLET NODE,BRANCH,HW LOOP SUPPLY SIDE INLET BRANCH,Outlet,1
 Parent Node Connection,HW LOOP SUPPLY SIDE BYPASS PIPE INLET NODE,BRANCH,HW LOOP SUPPLY SIDE BYPASS BRANCH,Inlet,1
 Parent Node Connection,HW LOOP SUPPLY SIDE BYPASS PIPE OUTLET NODE,BRANCH,HW LOOP SUPPLY SIDE BYPASS BRANCH,Outlet,1
 Parent Node Connection,DISTRICT HEATING WATER INLET NODE,BRANCH,DISTRICT HEATING HW LOOP SUPPLY SIDE BRANCH,Inlet,1
 Parent Node Connection,DISTRICT HEATING WATER OUTLET NODE,BRANCH,DISTRICT HEATING HW LOOP SUPPLY SIDE BRANCH,Outlet,1
 Parent Node Connection,HW LOOP SUPPLY SIDE OUTLET BRANCH PIPE INLET,BRANCH,HW LOOP SUPPLY SIDE OUTLET BRANCH,Inlet,1
 Parent Node Connection,HW LOOP SUPPLY SIDE OUTLET,BRANCH,HW LOOP SUPPLY SIDE OUTLET BRANCH,Outlet,1
 Parent Node Connection,CHW LOOP DEMAND SIDE INLET,BRANCH,CHW LOOP DEMAND SIDE INLET BRANCH,Inlet,1
 Parent Node Connection,CHW LOOP DEMAND SIDE INLET BRANCH PIPE OUTLET,BRANCH,CHW LOOP DEMAND SIDE INLET BRANCH,Outlet,1
 Parent Node Connection,CHW LOOP DEMAND SIDE BYPASS PIPE INLET NODE,BRANCH,CHW LOOP DEMAND SIDE BYPASS BRANCH,Inlet,1
 Parent Node Connection,CHW LOOP DEMAND SIDE BYPASS PIPE OUTLET NODE,BRANCH,CHW LOOP DEMAND SIDE BYPASS BRANCH,Outlet,1
 Parent Node Connection,AIR LOOP AHU COOLING COIL WATER INLET NODE,BRANCH,AIR LOOP AHU COOLING COIL CHW LOOP DEMAND SIDE BRANCH,Inlet,1
 Parent Node Connection,AIR LOOP AHU COOLING COIL WATER OUTLET NODE,BRANCH,AIR LOOP AHU COOLING COIL CHW LOOP DEMAND SIDE BRANCH,Outlet,1
 Parent Node Connection,HX DEMAND SIDE INLET NODE,BRANCH,HX CHW LOOP DEMAND SIDE BRANCH,Inlet,1
 Parent Node Connection,HX DEMAND SIDE OUTLET NODE,BRANCH,HX CHW LOOP DEMAND SIDE BRANCH,Outlet,1
 Parent Node Connection,CHW LOOP DEMAND SIDE OUTLET BRANCH PIPE INLET,BRANCH,CHW LOOP DEMAND SIDE OUTLET BRANCH,Inlet,1
 Parent Node Connection,CHW LOOP DEMAND SIDE OUTLET,BRANCH,CHW LOOP DEMAND SIDE OUTLET BRANCH,Outlet,1
 Parent Node Connection,CHW LOOP SUPPLY SIDE INLET,BRANCH,CHW LOOP SUPPLY SIDE INLET BRANCH,Inlet,1
 Parent Node Connection,CHW LOOP SUPPLY PUMP WATER OUTLET NODE,BRANCH,CHW LOOP SUPPLY SIDE INLET BRANCH,Outlet,1
 Parent Node Connection,CHW LOOP SUPPLY SIDE BYPASS PIPE INLET NODE,BRANCH,CHW LOOP SUPPLY SIDE BYPASS BRANCH,Inlet,1
 Parent Node Connection,CHW LOOP SUPPLY SIDE BYPASS PIPE OUTLET NODE,BRANCH,CHW LOOP SUPPLY SIDE BYPASS BRANCH,Outlet,1
 Parent Node Connection,DISTRICT COOLING WATER INLET NODE,BRANCH,DISTRICT COOLING CHW LOOP SUPPLY SIDE BRANCH,Inlet,1
 Parent Node Connection,DISTRICT COOLING WATER OUTLET NODE,BRANCH,DISTRICT COOLING CHW LOOP SUPPLY SIDE BRANCH,Outlet,1
 Parent Node Connection,CHW LOOP SUPPLY SIDE OUTLET BRANCH PIPE INLET,BRANCH,CHW LOOP SUPPLY SIDE OUTLET BRANCH,Inlet,1
 Parent Node Connection,CHW LOOP SUPPLY SIDE OUTLET,BRANCH,CHW LOOP SUPPLY SIDE OUTLET BRANCH,Outlet,1
 Parent Node Connection,CHW BEAM LOOP DEMAND SIDE INLET,BRANCH,CHW BEAM LOOP DEMAND SIDE INLET BRANCH,Inlet,1
 Parent Node Connection,CHW BEAM LOOP DEMAND SIDE INLET BRANCH PIPE OUTLET,BRANCH,CHW BEAM LOOP DEMAND SIDE INLET BRANCH,Outlet,1
 Parent Node Connection,CHW BEAM LOOP DEMAND SIDE BYPASS PIPE INLET NODE,BRANCH,CHW BEAM LOOP DEMAND SIDE BYPASS BRANCH,Inlet,1
 Parent Node Connection,CHW BEAM LOOP DEMAND SIDE BYPASS PIPE OUTLET NODE,BRANCH,CHW BEAM LOOP DEMAND SIDE BYPASS BRANCH,Outlet,1
 Parent Node Connection,BLOCK12:ZONE3 COOLED BEAM CHW INLET NODE,BRANCH,BLOCK12:ZONE3 COOLED BEAM CHW BEAM LOOP DEMAND SIDE BRANCH,Inlet,1
 Parent Node Connection,BLOCK12:ZONE3 COOLED BEAM CHW OUTLET NODE,BRANCH,BLOCK12:ZONE3 COOLED BEAM CHW BEAM LOOP DEMAND SIDE BRANCH,Outlet,1
 Parent Node Connection,BLOCK12:ZONE1 COOLED BEAM CHW INLET NODE,BRANCH,BLOCK12:ZONE1 COOLED BEAM CHW BEAM LOOP DEMAND SIDE BRANCH,Inlet,1
 Parent Node Connection,BLOCK12:ZONE1 COOLED BEAM CHW OUTLET NODE,BRANCH,BLOCK12:ZONE1 COOLED BEAM CHW BEAM LOOP DEMAND SIDE BRANCH,Outlet,1
 Parent Node Connection,BLOCK12:ZONE10 COOLED BEAM CHW INLET NODE,BRANCH,BLOCK12:ZONE10 COOLED BEAM CHW BEAM LOOP DEMAND SIDE BRANCH,Inlet,1
 Parent Node Connection,BLOCK12:ZONE10 COOLED BEAM CHW OUTLET NODE,BRANCH,BLOCK12:ZONE10 COOLED BEAM CHW BEAM LOOP DEMAND SIDE BRANCH,Outlet,1
 Parent Node Connection,BLOCK12:ZONE6 COOLED BEAM CHW INLET NODE,BRANCH,BLOCK12:ZONE6 COOLED BEAM CHW BEAM LOOP DEMAND SIDE BRANCH,Inlet,1
 Parent Node Connection,BLOCK12:ZONE6 COOLED BEAM CHW OUTLET NODE,BRANCH,BLOCK12:ZONE6 COOLED BEAM CHW BEAM LOOP DEMAND SIDE BRANCH,Outlet,1
 Parent Node Connection,BLOCK12:ZONE5 COOLED BEAM CHW INLET NODE,BRANCH,BLOCK12:ZONE5 COOLED BEAM CHW BEAM LOOP DEMAND SIDE BRANCH,Inlet,1
 Parent Node Connection,BLOCK12:ZONE5 COOLED BEAM CHW OUTLET NODE,BRANCH,BLOCK12:ZONE5 COOLED BEAM CHW BEAM LOOP DEMAND SIDE BRANCH,Outlet,1
 Parent Node Connection,BLOCK12:ZONE4 COOLED BEAM CHW INLET NODE,BRANCH,BLOCK12:ZONE4 COOLED BEAM CHW BEAM LOOP DEMAND SIDE BRANCH,Inlet,1
 Parent Node Connection,BLOCK12:ZONE4 COOLED BEAM CHW OUTLET NODE,BRANCH,BLOCK12:ZONE4 COOLED BEAM CHW BEAM LOOP DEMAND SIDE BRANCH,Outlet,1
 Parent Node Connection,BLOCK12:ZONE2 COOLED BEAM CHW INLET NODE,BRANCH,BLOCK12:ZONE2 COOLED BEAM CHW BEAM LOOP DEMAND SIDE BRANCH,Inlet,1
 Parent Node Connection,BLOCK12:ZONE2 COOLED BEAM CHW OUTLET NODE,BRANCH,BLOCK12:ZONE2 COOLED BEAM CHW BEAM LOOP DEMAND SIDE BRANCH,Outlet,1
 Parent Node Connection,CHW BEAM LOOP DEMAND SIDE OUTLET BRANCH PIPE INLET,BRANCH,CHW BEAM LOOP DEMAND SIDE OUTLET BRANCH,Inlet,1
 Parent Node Connection,CHW BEAM LOOP DEMAND SIDE OUTLET,BRANCH,CHW BEAM LOOP DEMAND SIDE OUTLET BRANCH,Outlet,1
 Parent Node Connection,CHW BEAM LOOP SUPPLY SIDE INLET,BRANCH,CHW BEAM LOOP SUPPLY SIDE INLET BRANCH,Inlet,1
 Parent Node Connection,CHW BEAM LOOP SUPPLY PUMP WATER OUTLET NODE,BRANCH,CHW BEAM LOOP SUPPLY SIDE INLET BRANCH,Outlet,1
 Parent Node Connection,CHW BEAM LOOP SUPPLY SIDE BYPASS PIPE INLET NODE,BRANCH,CHW BEAM LOOP SUPPLY SIDE BYPASS BRANCH,Inlet,1
 Parent Node Connection,CHW BEAM LOOP SUPPLY SIDE BYPASS PIPE OUTLET NODE,BRANCH,CHW BEAM LOOP SUPPLY SIDE BYPASS BRANCH,Outlet,1
 Parent Node Connection,HX SUPPLY SIDE INLET NODE,BRANCH,HX CHW BEAM LOOP SUPPLY SIDE BRANCH,Inlet,1
 Parent Node Connection,HX SUPPLY SIDE OUTLET NODE,BRANCH,HX CHW BEAM LOOP SUPPLY SIDE BRANCH,Outlet,1
 Parent Node Connection,CHW BEAM LOOP SUPPLY SIDE OUTLET BRANCH PIPE INLET,BRANCH,CHW BEAM LOOP SUPPLY SIDE OUTLET BRANCH,Inlet,1
 Parent Node Connection,CHW BEAM LOOP SUPPLY SIDE OUTLET,BRANCH,CHW BEAM LOOP SUPPLY SIDE OUTLET BRANCH,Outlet,1
 Parent Node Connection,HW LOOP SUPPLY SIDE INLET,PLANTLOOP,HW LOOP,Inlet,1
 Parent Node Connection,HW LOOP SUPPLY SIDE OUTLET,PLANTLOOP,HW LOOP,Outlet,1
 Parent Node Connection,HW LOOP DEMAND SIDE INLET,PLANTLOOP,HW LOOP,Inlet,1
 Parent Node Connection,HW LOOP DEMAND SIDE OUTLET,PLANTLOOP,HW LOOP,Outlet,1
 Parent Node Connection,HW LOOP SUPPLY SIDE OUTLET,PLANTLOOP,HW LOOP,Sensor,1
 Parent Node Connection,CHW LOOP SUPPLY SIDE INLET,PLANTLOOP,CHW LOOP,Inlet,1
 Parent Node Connection,CHW LOOP SUPPLY SIDE OUTLET,PLANTLOOP,CHW LOOP,Outlet,1
 Parent Node Connection,CHW LOOP DEMAND SIDE INLET,PLANTLOOP,CHW LOOP,Inlet,1
 Parent Node Connection,CHW LOOP DEMAND SIDE OUTLET,PLANTLOOP,CHW LOOP,Outlet,1
 Parent Node Connection,CHW LOOP SUPPLY SIDE OUTLET,PLANTLOOP,CHW LOOP,Sensor,1
 Parent Node Connection,CHW BEAM LOOP SUPPLY SIDE INLET,PLANTLOOP,CHW BEAM LOOP,Inlet,1
 Parent Node Connection,CHW BEAM LOOP SUPPLY SIDE OUTLET,PLANTLOOP,CHW BEAM LOOP,Outlet,1
 Parent Node Connection,CHW BEAM LOOP DEMAND SIDE INLET,PLANTLOOP,CHW BEAM LOOP,Inlet,1
 Parent Node Connection,CHW BEAM LOOP DEMAND SIDE OUTLET,PLANTLOOP,CHW BEAM LOOP,Outlet,1
 Parent Node Connection,CHW BEAM LOOP SUPPLY SIDE OUTLET,PLANTLOOP,CHW BEAM LOOP,Sensor,1
 Parent Node Connection,AIR LOOP DEMAND SIDE INLET 1,AIRLOOPHVAC:SUPPLYPATH,AIR LOOP DEMAND SIDE SUPPLY PATH 1,Inlet,1
 Parent Node Connection,AIR LOOP DEMAND SIDE OUTLET,AIRLOOPHVAC:RETURNPATH,AIR LOOP DEMAND SIDE RETURN PATH,Outlet,1
 Parent Node Connection,BLOCK12:ZONE3 COOLED BEAM SUPPLY INLET,ZONEHVAC:AIRDISTRIBUTIONUNIT,BLOCK12:ZONE3 COOLED BEAM ADU,Outlet,1
 Parent Node Connection,BLOCK12:ZONE1 COOLED BEAM SUPPLY INLET,ZONEHVAC:AIRDISTRIBUTIONUNIT,BLOCK12:ZONE1 COOLED BEAM ADU,Outlet,1
 Parent Node Connection,BLOCK12:ZONE10 COOLED BEAM SUPPLY INLET,ZONEHVAC:AIRDISTRIBUTIONUNIT,BLOCK12:ZONE10 COOLED BEAM ADU,Outlet,1
 Parent Node Connection,BLOCK12:ZONE6 COOLED BEAM SUPPLY INLET,ZONEHVAC:AIRDISTRIBUTIONUNIT,BLOCK12:ZONE6 COOLED BEAM ADU,Outlet,1
 Parent Node Connection,BLOCK12:ZONE5 COOLED BEAM SUPPLY INLET,ZONEHVAC:AIRDISTRIBUTIONUNIT,BLOCK12:ZONE5 COOLED BEAM ADU,Outlet,1
 Parent Node Connection,BLOCK12:ZONE4 COOLED BEAM SUPPLY INLET,ZONEHVAC:AIRDISTRIBUTIONUNIT,BLOCK12:ZONE4 COOLED BEAM ADU,Outlet,1
 Parent Node Connection,BLOCK12:ZONE2 COOLED BEAM SUPPLY INLET,ZONEHVAC:AIRDISTRIBUTIONUNIT,BLOCK12:ZONE2 COOLED BEAM ADU,Outlet,1
 Parent Node Connection,AIR LOOP SUPPLY SIDE INLET,AIRLOOPHVAC,AIR LOOP,Inlet,1
 Parent Node Connection,AIR LOOP DEMAND SIDE OUTLET,AIRLOOPHVAC,AIR LOOP,Outlet,1
 Parent Node Connection,AIR LOOP DEMAND SIDE INLET 1,AIRLOOPHVAC,AIR LOOP,Inlet,1
 Parent Node Connection,AIR LOOP SUPPLY SIDE OUTLET 1,AIRLOOPHVAC,AIR LOOP,Outlet,1
! ===============================================================
! <#Non-Parent Node Connections>,<Number of Non-Parent Node Connections>
 #Non-Parent Node Connections,227
! <Non-Parent Node Connection>,<Node Name>,<Node ObjectType>,<Node ObjectName>,<Node ConnectionType>,<Node FluidStream>
 Non-Parent Node Connection,AIR LOOP AHU OUTDOOR AIR INLET,OUTDOORAIR:NODELIST,OutdoorAir:NodeList,OutdoorAir,1
 Non-Parent Node Connection,AIR LOOP AHU HEAT RECOVERY SUPPLY OUTLET,SETPOINTMANAGER:SCHEDULED,AIR LOOP AHU HEAT RECOVERY DEVICE SETPOINT MANAGER,Setpoint,1
 Non-Parent Node Connection,AIR LOOP AHU COOLING COIL AIR OUTLET NODE,SETPOINTMANAGER:SCHEDULED,AIR LOOP SETPOINT MANAGER 1,Setpoint,1
 Non-Parent Node Connection,AIR LOOP AHU COOLING COIL AIR OUTLET NODE,SETPOINTMANAGER:SCHEDULED,AIR LOOP SETPOINT MANAGER 2,Setpoint,1
 Non-Parent Node Connection,AIR LOOP SUPPLY SIDE OUTLET 1,SETPOINTMANAGER:SCHEDULED,AIR LOOP SETPOINT MANAGER,Setpoint,1
 Non-Parent Node Connection,HW LOOP SUPPLY SIDE OUTLET,SETPOINTMANAGER:SCHEDULED,HW LOOP SETPOINT MANAGER,Setpoint,1
 Non-Parent Node Connection,CHW LOOP SUPPLY SIDE OUTLET,SETPOINTMANAGER:SCHEDULED,CHW LOOP SETPOINT MANAGER,Setpoint,1
 Non-Parent Node Connection,CHW BEAM LOOP SUPPLY SIDE OUTLET,SETPOINTMANAGER:SCHEDULED,CHW LOOP 1 SETPOINT MANAGER,Setpoint,1
 Non-Parent Node Connection,HX SUPPLY SIDE OUTLET NODE,SETPOINTMANAGER:SCHEDULED,CHW BEAM LOOP SETPOINT MANAGER,Setpoint,1
 Non-Parent Node Connection,AIR LOOP AHU COOLING COIL AIR OUTLET NODE,SETPOINTMANAGER:MIXEDAIR,AIR LOOP AHU OUTDOOR AIR SYSTEM MIXED AIR MANAGER,Sensor,1
 Non-Parent Node Connection,AIR LOOP AHU HEATING COIL AIR OUTLET NODE,SETPOINTMANAGER:MIXEDAIR,AIR LOOP AHU OUTDOOR AIR SYSTEM MIXED AIR MANAGER,Sensor,1
 Non-Parent Node Connection,AIR LOOP SUPPLY SIDE OUTLET 1,SETPOINTMANAGER:MIXEDAIR,AIR LOOP AHU OUTDOOR AIR SYSTEM MIXED AIR MANAGER,Sensor,1
 Non-Parent Node Connection,AIR LOOP AHU MIXED AIR OUTLET,SETPOINTMANAGER:MIXEDAIR,AIR LOOP AHU OUTDOOR AIR SYSTEM MIXED AIR MANAGER,Setpoint,1
 Non-Parent Node Connection,AIR LOOP SUPPLY SIDE OUTLET 1,SETPOINTMANAGER:MIXEDAIR,AIR LOOP AHU HEATING COIL MIXED AIR MANAGER,Sensor,1
 Non-Parent Node Connection,AIR LOOP AHU HEATING COIL AIR OUTLET NODE,SETPOINTMANAGER:MIXEDAIR,AIR LOOP AHU HEATING COIL MIXED AIR MANAGER,Sensor,1
 Non-Parent Node Connection,AIR LOOP AHU HEATING COIL AIR OUTLET NODE,SETPOINTMANAGER:MIXEDAIR,AIR LOOP AHU HEATING COIL MIXED AIR MANAGER,Setpoint,1
 Non-Parent Node Connection,HW LOOP DEMAND SIDE INLET,PIPE:ADIABATIC,HW LOOP DEMAND SIDE INLET BRANCH PIPE,Inlet,1
 Non-Parent Node Connection,HW LOOP DEMAND SIDE INLET BRANCH PIPE OUTLET,PIPE:ADIABATIC,HW LOOP DEMAND SIDE INLET BRANCH PIPE,Outlet,1
 Non-Parent Node Connection,HW LOOP DEMAND SIDE BYPASS PIPE INLET NODE,PIPE:ADIABATIC,HW LOOP DEMAND SIDE BYPASS PIPE,Inlet,1
 Non-Parent Node Connection,HW LOOP DEMAND SIDE BYPASS PIPE OUTLET NODE,PIPE:ADIABATIC,HW LOOP DEMAND SIDE BYPASS PIPE,Outlet,1
 Non-Parent Node Connection,HW LOOP DEMAND SIDE OUTLET BRANCH PIPE INLET,PIPE:ADIABATIC,HW LOOP DEMAND SIDE OUTLET BRANCH PIPE,Inlet,1
 Non-Parent Node Connection,HW LOOP DEMAND SIDE OUTLET,PIPE:ADIABATIC,HW LOOP DEMAND SIDE OUTLET BRANCH PIPE,Outlet,1
 Non-Parent Node Connection,HW LOOP SUPPLY SIDE BYPASS PIPE INLET NODE,PIPE:ADIABATIC,HW LOOP SUPPLY SIDE BYPASS PIPE,Inlet,1
 Non-Parent Node Connection,HW LOOP SUPPLY SIDE BYPASS PIPE OUTLET NODE,PIPE:ADIABATIC,HW LOOP SUPPLY SIDE BYPASS PIPE,Outlet,1
 Non-Parent Node Connection,HW LOOP SUPPLY SIDE OUTLET BRANCH PIPE INLET,PIPE:ADIABATIC,HW LOOP SUPPLY SIDE OUTLET BRANCH PIPE,Inlet,1
 Non-Parent Node Connection,HW LOOP SUPPLY SIDE OUTLET,PIPE:ADIABATIC,HW LOOP SUPPLY SIDE OUTLET BRANCH PIPE,Outlet,1
 Non-Parent Node Connection,CHW LOOP DEMAND SIDE INLET,PIPE:ADIABATIC,CHW LOOP DEMAND SIDE INLET BRANCH PIPE,Inlet,1
 Non-Parent Node Connection,CHW LOOP DEMAND SIDE INLET BRANCH PIPE OUTLET,PIPE:ADIABATIC,CHW LOOP DEMAND SIDE INLET BRANCH PIPE,Outlet,1
 Non-Parent Node Connection,CHW LOOP DEMAND SIDE BYPASS PIPE INLET NODE,PIPE:ADIABATIC,CHW LOOP DEMAND SIDE BYPASS PIPE,Inlet,1
 Non-Parent Node Connection,CHW LOOP DEMAND SIDE BYPASS PIPE OUTLET NODE,PIPE:ADIABATIC,CHW LOOP DEMAND SIDE BYPASS PIPE,Outlet,1
 Non-Parent Node Connection,CHW LOOP DEMAND SIDE OUTLET BRANCH PIPE INLET,PIPE:ADIABATIC,CHW LOOP DEMAND SIDE OUTLET BRANCH PIPE,Inlet,1
 Non-Parent Node Connection,CHW LOOP DEMAND SIDE OUTLET,PIPE:ADIABATIC,CHW LOOP DEMAND SIDE OUTLET BRANCH PIPE,Outlet,1
 Non-Parent Node Connection,CHW LOOP SUPPLY SIDE BYPASS PIPE INLET NODE,PIPE:ADIABATIC,CHW LOOP SUPPLY SIDE BYPASS PIPE,Inlet,1
 Non-Parent Node Connection,CHW LOOP SUPPLY SIDE BYPASS PIPE OUTLET NODE,PIPE:ADIABATIC,CHW LOOP SUPPLY SIDE BYPASS PIPE,Outlet,1
 Non-Parent Node Connection,CHW LOOP SUPPLY SIDE OUTLET BRANCH PIPE INLET,PIPE:ADIABATIC,CHW LOOP SUPPLY SIDE OUTLET BRANCH PIPE,Inlet,1
 Non-Parent Node Connection,CHW LOOP SUPPLY SIDE OUTLET,PIPE:ADIABATIC,CHW LOOP SUPPLY SIDE OUTLET BRANCH PIPE,Outlet,1
 Non-Parent Node Connection,CHW BEAM LOOP DEMAND SIDE INLET,PIPE:ADIABATIC,CHW BEAM LOOP DEMAND SIDE INLET BRANCH PIPE,Inlet,1
 Non-Parent Node Connection,CHW BEAM LOOP DEMAND SIDE INLET BRANCH PIPE OUTLET,PIPE:ADIABATIC,CHW BEAM LOOP DEMAND SIDE INLET BRANCH PIPE,Outlet,1
 Non-Parent Node Connection,CHW BEAM LOOP DEMAND SIDE BYPASS PIPE INLET NODE,PIPE:ADIABATIC,CHW BEAM LOOP DEMAND SIDE BYPASS PIPE,Inlet,1
 Non-Parent Node Connection,CHW BEAM LOOP DEMAND SIDE BYPASS PIPE OUTLET NODE,PIPE:ADIABATIC,CHW BEAM LOOP DEMAND SIDE BYPASS PIPE,Outlet,1
[...]
 Non-Parent Node Connection,HX DEMAND SIDE INLET NODE,CONNECTOR:SPLITTER,CHW LOOP DEMAND SPLITTER,Outlet,1
 Non-Parent Node Connection,CHW LOOP DEMAND SIDE OUTLET BRANCH PIPE INLET,CONNECTOR:MIXER,CHW LOOP DEMAND MIXER,Outlet,1
 Non-Parent Node Connection,AIR LOOP AHU COOLING COIL WATER OUTLET NODE,CONNECTOR:MIXER,CHW LOOP DEMAND MIXER,Inlet,1
 Non-Parent Node Connection,CHW LOOP DEMAND SIDE BYPASS PIPE OUTLET NODE,CONNECTOR:MIXER,CHW LOOP DEMAND MIXER,Inlet,1
 Non-Parent Node Connection,HX DEMAND SIDE OUTLET NODE,CONNECTOR:MIXER,CHW LOOP DEMAND MIXER,Inlet,1
 Non-Parent Node Connection,CHW LOOP SUPPLY PUMP WATER OUTLET NODE,CONNECTOR:SPLITTER,CHW LOOP SUPPLY SPLITTER,Inlet,1
 Non-Parent Node Connection,CHW LOOP SUPPLY SIDE BYPASS PIPE INLET NODE,CONNECTOR:SPLITTER,CHW LOOP SUPPLY SPLITTER,Outlet,1
 Non-Parent Node Connection,DISTRICT COOLING WATER INLET NODE,CONNECTOR:SPLITTER,CHW LOOP SUPPLY SPLITTER,Outlet,1
 Non-Parent Node Connection,CHW LOOP SUPPLY SIDE OUTLET BRANCH PIPE INLET,CONNECTOR:MIXER,CHW LOOP SUPPLY MIXER,Outlet,1
 Non-Parent Node Connection,CHW LOOP SUPPLY SIDE BYPASS PIPE OUTLET NODE,CONNECTOR:MIXER,CHW LOOP SUPPLY MIXER,Inlet,1
 Non-Parent Node Connection,DISTRICT COOLING WATER OUTLET NODE,CONNECTOR:MIXER,CHW LOOP SUPPLY MIXER,Inlet,1
 Non-Parent Node Connection,CHW BEAM LOOP DEMAND SIDE INLET BRANCH PIPE OUTLET,CONNECTOR:SPLITTER,CHW BEAM LOOP DEMAND SPLITTER,Inlet,1
 Non-Parent Node Connection,CHW BEAM LOOP DEMAND SIDE BYPASS PIPE INLET NODE,CONNECTOR:SPLITTER,CHW BEAM LOOP DEMAND SPLITTER,Outlet,1
 Non-Parent Node Connection,BLOCK12:ZONE3 COOLED BEAM CHW INLET NODE,CONNECTOR:SPLITTER,CHW BEAM LOOP DEMAND SPLITTER,Outlet,1
 Non-Parent Node Connection,BLOCK12:ZONE1 COOLED BEAM CHW INLET NODE,CONNECTOR:SPLITTER,CHW BEAM LOOP DEMAND SPLITTER,Outlet,1
 Non-Parent Node Connection,BLOCK12:ZONE10 COOLED BEAM CHW INLET NODE,CONNECTOR:SPLITTER,CHW BEAM LOOP DEMAND SPLITTER,Outlet,1
 Non-Parent Node Connection,BLOCK12:ZONE6 COOLED BEAM CHW INLET NODE,CONNECTOR:SPLITTER,CHW BEAM LOOP DEMAND SPLITTER,Outlet,1
 Non-Parent Node Connection,BLOCK12:ZONE5 COOLED BEAM CHW INLET NODE,CONNECTOR:SPLITTER,CHW BEAM LOOP DEMAND SPLITTER,Outlet,1
 Non-Parent Node Connection,BLOCK12:ZONE4 COOLED BEAM CHW INLET NODE,CONNECTOR:SPLITTER,CHW BEAM LOOP DEMAND SPLITTER,Outlet,1
 Non-Parent Node Connection,BLOCK12:ZONE2 COOLED BEAM CHW INLET NODE,CONNECTOR:SPLITTER,CHW BEAM LOOP DEMAND SPLITTER,Outlet,1
 Non-Parent Node Connection,CHW BEAM LOOP DEMAND SIDE OUTLET BRANCH PIPE INLET,CONNECTOR:MIXER,CHW BEAM LOOP DEMAND MIXER,Outlet,1
 Non-Parent Node Connection,CHW BEAM LOOP DEMAND SIDE BYPASS PIPE OUTLET NODE,CONNECTOR:MIXER,CHW BEAM LOOP DEMAND MIXER,Inlet,1
 Non-Parent Node Connection,BLOCK12:ZONE3 COOLED BEAM CHW OUTLET NODE,CONNECTOR:MIXER,CHW BEAM LOOP DEMAND MIXER,Inlet,1
 Non-Parent Node Connection,BLOCK12:ZONE1 COOLED BEAM CHW OUTLET NODE,CONNECTOR:MIXER,CHW BEAM LOOP DEMAND MIXER,Inlet,1
 Non-Parent Node Connection,BLOCK12:ZONE10 COOLED BEAM CHW OUTLET NODE,CONNECTOR:MIXER,CHW BEAM LOOP DEMAND MIXER,Inlet,1
 Non-Parent Node Connection,BLOCK12:ZONE6 COOLED BEAM CHW OUTLET NODE,CONNECTOR:MIXER,CHW BEAM LOOP DEMAND MIXER,Inlet,1
 Non-Parent Node Connection,BLOCK12:ZONE5 COOLED BEAM CHW OUTLET NODE,CONNECTOR:MIXER,CHW BEAM LOOP DEMAND MIXER,Inlet,1
 Non-Parent Node Connection,BLOCK12:ZONE4 COOLED BEAM CHW OUTLET NODE,CONNECTOR:MIXER,CHW BEAM LOOP DEMAND MIXER,Inlet,1
 Non-Parent Node Connection,BLOCK12:ZONE2 COOLED BEAM CHW OUTLET NODE,CONNECTOR:MIXER,CHW BEAM LOOP DEMAND MIXER,Inlet,1
 Non-Parent Node Connection,CHW BEAM LOOP SUPPLY PUMP WATER OUTLET NODE,CONNECTOR:SPLITTER,CHW BEAM LOOP SUPPLY SPLITTER,Inlet,1
 Non-Parent Node Connection,CHW BEAM LOOP SUPPLY SIDE BYPASS PIPE INLET NODE,CONNECTOR:SPLITTER,CHW BEAM LOOP SUPPLY SPLITTER,Outlet,1
 Non-Parent Node Connection,HX SUPPLY SIDE INLET NODE,CONNECTOR:SPLITTER,CHW BEAM LOOP SUPPLY SPLITTER,Outlet,1
 Non-Parent Node Connection,CHW BEAM LOOP SUPPLY SIDE OUTLET BRANCH PIPE INLET,CONNECTOR:MIXER,CHW BEAM LOOP SUPPLY MIXER,Outlet,1
 Non-Parent Node Connection,CHW BEAM LOOP SUPPLY SIDE BYPASS PIPE OUTLET NODE,CONNECTOR:MIXER,CHW BEAM LOOP SUPPLY MIXER,Inlet,1
 Non-Parent Node Connection,HX SUPPLY SIDE OUTLET NODE,CONNECTOR:MIXER,CHW BEAM LOOP SUPPLY MIXER,Inlet,1
 Non-Parent Node Connection,BLOCK12:ZONE3 ZONE AIR NODE,ZONEHVAC:EQUIPMENTCONNECTIONS,BLOCK12:ZONE3,ZoneNode,1
 Non-Parent Node Connection,AIR LOOP ZONE MIXER INLET NODE 1,ZONEHVAC:EQUIPMENTCONNECTIONS,BLOCK12:ZONE3,ZoneReturn,1
 Non-Parent Node Connection,BLOCK12:ZONE3 COOLED BEAM SUPPLY INLET,ZONEHVAC:EQUIPMENTCONNECTIONS,BLOCK12:ZONE3,ZoneInlet,1
 Non-Parent Node Connection,BLOCK12:ZONE1 ZONE AIR NODE,ZONEHVAC:EQUIPMENTCONNECTIONS,BLOCK12:ZONE1,ZoneNode,1
 Non-Parent Node Connection,AIR LOOP ZONE MIXER INLET NODE 2,ZONEHVAC:EQUIPMENTCONNECTIONS,BLOCK12:ZONE1,ZoneReturn,1
 Non-Parent Node Connection,BLOCK12:ZONE1 COOLED BEAM SUPPLY INLET,ZONEHVAC:EQUIPMENTCONNECTIONS,BLOCK12:ZONE1,ZoneInlet,1
 Non-Parent Node Connection,BLOCK12:ZONE10 ZONE AIR NODE,ZONEHVAC:EQUIPMENTCONNECTIONS,BLOCK12:ZONE10,ZoneNode,1
 Non-Parent Node Connection,AIR LOOP ZONE MIXER INLET NODE 3,ZONEHVAC:EQUIPMENTCONNECTIONS,BLOCK12:ZONE10,ZoneReturn,1
 Non-Parent Node Connection,BLOCK12:ZONE10 COOLED BEAM SUPPLY INLET,ZONEHVAC:EQUIPMENTCONNECTIONS,BLOCK12:ZONE10,ZoneInlet,1
 Non-Parent Node Connection,BLOCK12:ZONE6 ZONE AIR NODE,ZONEHVAC:EQUIPMENTCONNECTIONS,BLOCK12:ZONE6,ZoneNode,1
 Non-Parent Node Connection,AIR LOOP ZONE MIXER INLET NODE 4,ZONEHVAC:EQUIPMENTCONNECTIONS,BLOCK12:ZONE6,ZoneReturn,1
 Non-Parent Node Connection,BLOCK12:ZONE6 COOLED BEAM SUPPLY INLET,ZONEHVAC:EQUIPMENTCONNECTIONS,BLOCK12:ZONE6,ZoneInlet,1
 Non-Parent Node Connection,BLOCK12:ZONE5 ZONE AIR NODE,ZONEHVAC:EQUIPMENTCONNECTIONS,BLOCK12:ZONE5,ZoneNode,1
 Non-Parent Node Connection,AIR LOOP ZONE MIXER INLET NODE 5,ZONEHVAC:EQUIPMENTCONNECTIONS,BLOCK12:ZONE5,ZoneReturn,1
 Non-Parent Node Connection,BLOCK12:ZONE5 COOLED BEAM SUPPLY INLET,ZONEHVAC:EQUIPMENTCONNECTIONS,BLOCK12:ZONE5,ZoneInlet,1
 Non-Parent Node Connection,BLOCK12:ZONE4 ZONE AIR NODE,ZONEHVAC:EQUIPMENTCONNECTIONS,BLOCK12:ZONE4,ZoneNode,1
 Non-Parent Node Connection,AIR LOOP ZONE MIXER INLET NODE 6,ZONEHVAC:EQUIPMENTCONNECTIONS,BLOCK12:ZONE4,ZoneReturn,1
 Non-Parent Node Connection,BLOCK12:ZONE4 COOLED BEAM SUPPLY INLET,ZONEHVAC:EQUIPMENTCONNECTIONS,BLOCK12:ZONE4,ZoneInlet,1
 Non-Parent Node Connection,BLOCK12:ZONE2 ZONE AIR NODE,ZONEHVAC:EQUIPMENTCONNECTIONS,BLOCK12:ZONE2,ZoneNode,1
 Non-Parent Node Connection,AIR LOOP ZONE MIXER INLET NODE 7,ZONEHVAC:EQUIPMENTCONNECTIONS,BLOCK12:ZONE2,ZoneReturn,1
 Non-Parent Node Connection,BLOCK12:ZONE2 COOLED BEAM SUPPLY INLET,ZONEHVAC:EQUIPMENTCONNECTIONS,BLOCK12:ZONE2,ZoneInlet,1
 Non-Parent Node Connection,AIR LOOP DEMAND SIDE INLET 1,AIRLOOPHVAC:ZONESPLITTER,AIR LOOP ZONE SPLITTER,Inlet,1
 Non-Parent Node Connection,AIR LOOP ZONE SPLITTER OUTLET NODE 1,AIRLOOPHVAC:ZONESPLITTER,AIR LOOP ZONE SPLITTER,Outlet,1
 Non-Parent Node Connection,AIR LOOP ZONE SPLITTER OUTLET NODE 2,AIRLOOPHVAC:ZONESPLITTER,AIR LOOP ZONE SPLITTER,Outlet,1
 Non-Parent Node Connection,AIR LOOP ZONE SPLITTER OUTLET NODE 3,AIRLOOPHVAC:ZONESPLITTER,AIR LOOP ZONE SPLITTER,Outlet,1
 Non-Parent Node Connection,AIR LOOP ZONE SPLITTER OUTLET NODE 4,AIRLOOPHVAC:ZONESPLITTER,AIR LOOP ZONE SPLITTER,Outlet,1
 Non-Parent Node Connection,AIR LOOP ZONE SPLITTER OUTLET NODE 5,AIRLOOPHVAC:ZONESPLITTER,AIR LOOP ZONE SPLITTER,Outlet,1
 Non-Parent Node Connection,AIR LOOP ZONE SPLITTER OUTLET NODE 6,AIRLOOPHVAC:ZONESPLITTER,AIR LOOP ZONE SPLITTER,Outlet,1
 Non-Parent Node Connection,AIR LOOP ZONE SPLITTER OUTLET NODE 7,AIRLOOPHVAC:ZONESPLITTER,AIR LOOP ZONE SPLITTER,Outlet,1
 Non-Parent Node Connection,AIR LOOP ZONE SPLITTER OUTLET NODE 1,AIRTERMINAL:SINGLEDUCT:CONSTANTVOLUME:COOLEDBEAM,BLOCK12:ZONE3 COOLED BEAM,Inlet,1
 Non-Parent Node Connection,BLOCK12:ZONE3 COOLED BEAM SUPPLY INLET,AIRTERMINAL:SINGLEDUCT:CONSTANTVOLUME:COOLEDBEAM,BLOCK12:ZONE3 COOLED BEAM,Outlet,1
 Non-Parent Node Connection,BLOCK12:ZONE3 COOLED BEAM CHW INLET NODE,AIRTERMINAL:SINGLEDUCT:CONSTANTVOLUME:COOLEDBEAM,BLOCK12:ZONE3 COOLED BEAM,Inlet,2
 Non-Parent Node Connection,BLOCK12:ZONE3 COOLED BEAM CHW OUTLET NODE,AIRTERMINAL:SINGLEDUCT:CONSTANTVOLUME:COOLEDBEAM,BLOCK12:ZONE3 COOLED BEAM,Outlet,2
 Non-Parent Node Connection,AIR LOOP ZONE SPLITTER OUTLET NODE 2,AIRTERMINAL:SINGLEDUCT:CONSTANTVOLUME:COOLEDBEAM,BLOCK12:ZONE1 COOLED BEAM,Inlet,1
 Non-Parent Node Connection,BLOCK12:ZONE1 COOLED BEAM SUPPLY INLET,AIRTERMINAL:SINGLEDUCT:CONSTANTVOLUME:COOLEDBEAM,BLOCK12:ZONE1 COOLED BEAM,Outlet,1
 Non-Parent Node Connection,BLOCK12:ZONE1 COOLED BEAM CHW INLET NODE,AIRTERMINAL:SINGLEDUCT:CONSTANTVOLUME:COOLEDBEAM,BLOCK12:ZONE1 COOLED BEAM,Inlet,2
 Non-Parent Node Connection,BLOCK12:ZONE1 COOLED BEAM CHW OUTLET NODE,AIRTERMINAL:SINGLEDUCT:CONSTANTVOLUME:COOLEDBEAM,BLOCK12:ZONE1 COOLED BEAM,Outlet,2
 Non-Parent Node Connection,AIR LOOP ZONE SPLITTER OUTLET NODE 3,AIRTERMINAL:SINGLEDUCT:CONSTANTVOLUME:COOLEDBEAM,BLOCK12:ZONE10 COOLED BEAM,Inlet,1
 Non-Parent Node Connection,BLOCK12:ZONE10 COOLED BEAM SUPPLY INLET,AIRTERMINAL:SINGLEDUCT:CONSTANTVOLUME:COOLEDBEAM,BLOCK12:ZONE10 COOLED BEAM,Outlet,1
 Non-Parent Node Connection,BLOCK12:ZONE10 COOLED BEAM CHW INLET NODE,AIRTERMINAL:SINGLEDUCT:CONSTANTVOLUME:COOLEDBEAM,BLOCK12:ZONE10 COOLED BEAM,Inlet,2
 Non-Parent Node Connection,BLOCK12:ZONE10 COOLED BEAM CHW OUTLET NODE,AIRTERMINAL:SINGLEDUCT:CONSTANTVOLUME:COOLEDBEAM,BLOCK12:ZONE10 COOLED BEAM,Outlet,2
 Non-Parent Node Connection,AIR LOOP ZONE SPLITTER OUTLET NODE 4,AIRTERMINAL:SINGLEDUCT:CONSTANTVOLUME:COOLEDBEAM,BLOCK12:ZONE6 COOLED BEAM,Inlet,1
 Non-Parent Node Connection,BLOCK12:ZONE6 COOLED BEAM SUPPLY INLET,AIRTERMINAL:SINGLEDUCT:CONSTANTVOLUME:COOLEDBEAM,BLOCK12:ZONE6 COOLED BEAM,Outlet,1
 Non-Parent Node Connection,BLOCK12:ZONE6 COOLED BEAM CHW INLET NODE,AIRTERMINAL:SINGLEDUCT:CONSTANTVOLUME:COOLEDBEAM,BLOCK12:ZONE6 COOLED BEAM,Inlet,2
 Non-Parent Node Connection,BLOCK12:ZONE6 COOLED BEAM CHW OUTLET NODE,AIRTERMINAL:SINGLEDUCT:CONSTANTVOLUME:COOLEDBEAM,BLOCK12:ZONE6 COOLED BEAM,Outlet,2
 Non-Parent Node Connection,AIR LOOP ZONE SPLITTER OUTLET NODE 5,AIRTERMINAL:SINGLEDUCT:CONSTANTVOLUME:COOLEDBEAM,BLOCK12:ZONE5 COOLED BEAM,Inlet,1
 Non-Parent Node Connection,BLOCK12:ZONE5 COOLED BEAM SUPPLY INLET,AIRTERMINAL:SINGLEDUCT:CONSTANTVOLUME:COOLEDBEAM,BLOCK12:ZONE5 COOLED BEAM,Outlet,1
 Non-Parent Node Connection,BLOCK12:ZONE5 COOLED BEAM CHW INLET NODE,AIRTERMINAL:SINGLEDUCT:CONSTANTVOLUME:COOLEDBEAM,BLOCK12:ZONE5 COOLED BEAM,Inlet,2
 Non-Parent Node Connection,BLOCK12:ZONE5 COOLED BEAM CHW OUTLET NODE,AIRTERMINAL:SINGLEDUCT:CONSTANTVOLUME:COOLEDBEAM,BLOCK12:ZONE5 COOLED BEAM,Outlet,2
 Non-Parent Node Connection,AIR LOOP ZONE SPLITTER OUTLET NODE 6,AIRTERMINAL:SINGLEDUCT:CONSTANTVOLUME:COOLEDBEAM,BLOCK12:ZONE4 COOLED BEAM,Inlet,1
 Non-Parent Node Connection,BLOCK12:ZONE4 COOLED BEAM SUPPLY INLET,AIRTERMINAL:SINGLEDUCT:CONSTANTVOLUME:COOLEDBEAM,BLOCK12:ZONE4 COOLED BEAM,Outlet,1
 Non-Parent Node Connection,BLOCK12:ZONE4 COOLED BEAM CHW INLET NODE,AIRTERMINAL:SINGLEDUCT:CONSTANTVOLUME:COOLEDBEAM,BLOCK12:ZONE4 COOLED BEAM,Inlet,2
 Non-Parent Node Connection,BLOCK12:ZONE4 COOLED BEAM CHW OUTLET NODE,AIRTERMINAL:SINGLEDUCT:CONSTANTVOLUME:COOLEDBEAM,BLOCK12:ZONE4 COOLED BEAM,Outlet,2
 Non-Parent Node Connection,AIR LOOP ZONE SPLITTER OUTLET NODE 7,AIRTERMINAL:SINGLEDUCT:CONSTANTVOLUME:COOLEDBEAM,BLOCK12:ZONE2 COOLED BEAM,Inlet,1
 Non-Parent Node Connection,BLOCK12:ZONE2 COOLED BEAM SUPPLY INLET,AIRTERMINAL:SINGLEDUCT:CONSTANTVOLUME:COOLEDBEAM,BLOCK12:ZONE2 COOLED BEAM,Outlet,1
 Non-Parent Node Connection,BLOCK12:ZONE2 COOLED BEAM CHW INLET NODE,AIRTERMINAL:SINGLEDUCT:CONSTANTVOLUME:COOLEDBEAM,BLOCK12:ZONE2 COOLED BEAM,Inlet,2
 Non-Parent Node Connection,BLOCK12:ZONE2 COOLED BEAM CHW OUTLET NODE,AIRTERMINAL:SINGLEDUCT:CONSTANTVOLUME:COOLEDBEAM,BLOCK12:ZONE2 COOLED BEAM,Outlet,2
 Non-Parent Node Connection,BLOCK12:ZONE3 WATER CONVECTOR HOT WATER INLET NODE,ZONEHVAC:BASEBOARD:CONVECTIVE:WATER,BLOCK12:ZONE3 WATER CONVECTOR,Inlet,1
 Non-Parent Node Connection,BLOCK12:ZONE3 WATER CONVECTOR HOT WATER OUTLET NODE,ZONEHVAC:BASEBOARD:CONVECTIVE:WATER,BLOCK12:ZONE3 WATER CONVECTOR,Outlet,1
 Non-Parent Node Connection,BLOCK12:ZONE1 WATER CONVECTOR HOT WATER INLET NODE,ZONEHVAC:BASEBOARD:CONVECTIVE:WATER,BLOCK12:ZONE1 WATER CONVECTOR,Inlet,1
 Non-Parent Node Connection,BLOCK12:ZONE1 WATER CONVECTOR HOT WATER OUTLET NODE,ZONEHVAC:BASEBOARD:CONVECTIVE:WATER,BLOCK12:ZONE1 WATER CONVECTOR,Outlet,1
 Non-Parent Node Connection,BLOCK12:ZONE10 WATER CONVECTOR HOT WATER INLET NODE,ZONEHVAC:BASEBOARD:CONVECTIVE:WATER,BLOCK12:ZONE10 WATER CONVECTOR,Inlet,1
 Non-Parent Node Connection,BLOCK12:ZONE10 WATER CONVECTOR HOT WATER OUTLET NODE,ZONEHVAC:BASEBOARD:CONVECTIVE:WATER,BLOCK12:ZONE10 WATER CONVECTOR,Outlet,1
 Non-Parent Node Connection,BLOCK12:ZONE6 WATER CONVECTOR HOT WATER INLET NODE,ZONEHVAC:BASEBOARD:CONVECTIVE:WATER,BLOCK12:ZONE6 WATER CONVECTOR,Inlet,1
 Non-Parent Node Connection,BLOCK12:ZONE6 WATER CONVECTOR HOT WATER OUTLET NODE,ZONEHVAC:BASEBOARD:CONVECTIVE:WATER,BLOCK12:ZONE6 WATER CONVECTOR,Outlet,1
 Non-Parent Node Connection,BLOCK12:ZONE5 WATER CONVECTOR HOT WATER INLET NODE,ZONEHVAC:BASEBOARD:CONVECTIVE:WATER,BLOCK12:ZONE5 WATER CONVECTOR,Inlet,1
 Non-Parent Node Connection,BLOCK12:ZONE5 WATER CONVECTOR HOT WATER OUTLET NODE,ZONEHVAC:BASEBOARD:CONVECTIVE:WATER,BLOCK12:ZONE5 WATER CONVECTOR,Outlet,1
 Non-Parent Node Connection,BLOCK12:ZONE4 WATER CONVECTOR HOT WATER INLET NODE,ZONEHVAC:BASEBOARD:CONVECTIVE:WATER,BLOCK12:ZONE4 WATER CONVECTOR,Inlet,1
 Non-Parent Node Connection,BLOCK12:ZONE4 WATER CONVECTOR HOT WATER OUTLET NODE,ZONEHVAC:BASEBOARD:CONVECTIVE:WATER,BLOCK12:ZONE4 WATER CONVECTOR,Outlet,1
 Non-Parent Node Connection,BLOCK12:ZONE2 WATER CONVECTOR HOT WATER INLET NODE,ZONEHVAC:BASEBOARD:CONVECTIVE:WATER,BLOCK12:ZONE2 WATER CONVECTOR,Inlet,1
 Non-Parent Node Connection,BLOCK12:ZONE2 WATER CONVECTOR HOT WATER OUTLET NODE,ZONEHVAC:BASEBOARD:CONVECTIVE:WATER,BLOCK12:ZONE2 WATER CONVECTOR,Outlet,1
 Non-Parent Node Connection,AIR LOOP DEMAND SIDE OUTLET,AIRLOOPHVAC:ZONEMIXER,AIR LOOP ZONE MIXER,Outlet,1
 Non-Parent Node Connection,AIR LOOP ZONE MIXER INLET NODE 1,AIRLOOPHVAC:ZONEMIXER,AIR LOOP ZONE MIXER,Inlet,1
 Non-Parent Node Connection,AIR LOOP ZONE MIXER INLET NODE 2,AIRLOOPHVAC:ZONEMIXER,AIR LOOP ZONE MIXER,Inlet,1
 Non-Parent Node Connection,AIR LOOP ZONE MIXER INLET NODE 3,AIRLOOPHVAC:ZONEMIXER,AIR LOOP ZONE MIXER,Inlet,1
 Non-Parent Node Connection,AIR LOOP ZONE MIXER INLET NODE 4,AIRLOOPHVAC:ZONEMIXER,AIR LOOP ZONE MIXER,Inlet,1
 Non-Parent Node Connection,AIR LOOP ZONE MIXER INLET NODE 5,AIRLOOPHVAC:ZONEMIXER,AIR LOOP ZONE MIXER,Inlet,1
 Non-Parent Node Connection,AIR LOOP ZONE MIXER INLET NODE 6,AIRLOOPHVAC:ZONEMIXER,AIR LOOP ZONE MIXER,Inlet,1
 Non-Parent Node Connection,AIR LOOP ZONE MIXER INLET NODE 7,AIRLOOPHVAC:ZONEMIXER,AIR LOOP ZONE MIXER,Inlet,1
 Non-Parent Node Connection,AIR LOOP AHU MIXED AIR OUTLET,OUTDOORAIR:MIXER,AIR LOOP AHU OUTDOOR AIR MIXER,Outlet,1
 Non-Parent Node Connection,AIR LOOP AHU HEAT RECOVERY SUPPLY OUTLET,OUTDOORAIR:MIXER,AIR LOOP AHU OUTDOOR AIR MIXER,Inlet,1
 Non-Parent Node Connection,AIR LOOP AHU RELIEF AIR OUTLET,OUTDOORAIR:MIXER,AIR LOOP AHU OUTDOOR AIR MIXER,ReliefAir,1
 Non-Parent Node Connection,AIR LOOP AHU EXTRACT FAN AIR OUTLET NODE,OUTDOORAIR:MIXER,AIR LOOP AHU OUTDOOR AIR MIXER,Inlet,1
 Non-Parent Node Connection,AIR LOOP AHU COOLING COIL WATER INLET NODE,COIL:COOLING:WATER,AIR LOOP AHU COOLING COIL,Inlet,2
 Non-Parent Node Connection,AIR LOOP AHU COOLING COIL WATER OUTLET NODE,COIL:COOLING:WATER,AIR LOOP AHU COOLING COIL,Outlet,2
 Non-Parent Node Connection,AIR LOOP AHU MIXED AIR OUTLET,COIL:COOLING:WATER,AIR LOOP AHU COOLING COIL,Inlet,1
 Non-Parent Node Connection,AIR LOOP AHU COOLING COIL AIR OUTLET NODE,COIL:COOLING:WATER,AIR LOOP AHU COOLING COIL,Outlet,1
 Non-Parent Node Connection,AIR LOOP AHU COOLING COIL AIR OUTLET NODE,CONTROLLER:WATERCOIL,AIR LOOP AHU COOLING COIL CONTROLLER,Sensor,1
 Non-Parent Node Connection,AIR LOOP AHU COOLING COIL WATER INLET NODE,CONTROLLER:WATERCOIL,AIR LOOP AHU COOLING COIL CONTROLLER,Actuator,1
 Non-Parent Node Connection,AIR LOOP SUPPLY SIDE INLET,FAN:CONSTANTVOLUME,AIR LOOP AHU EXTRACT FAN,Inlet,1
 Non-Parent Node Connection,AIR LOOP AHU EXTRACT FAN AIR OUTLET NODE,FAN:CONSTANTVOLUME,AIR LOOP AHU EXTRACT FAN,Outlet,1
 Non-Parent Node Connection,AIR LOOP AHU HEATING COIL AIR OUTLET NODE,FAN:CONSTANTVOLUME,AIR LOOP AHU SUPPLY FAN,Inlet,1
 Non-Parent Node Connection,AIR LOOP SUPPLY SIDE OUTLET 1,FAN:CONSTANTVOLUME,AIR LOOP AHU SUPPLY FAN,Outlet,1
 Non-Parent Node Connection,AIR LOOP AHU MIXED AIR OUTLET,CONTROLLER:OUTDOORAIR,AIR LOOP AHU OUTDOOR AIR CONTROLLER,Sensor,1
 Non-Parent Node Connection,AIR LOOP AHU OUTDOOR AIR INLET,CONTROLLER:OUTDOORAIR,AIR LOOP AHU OUTDOOR AIR CONTROLLER,Actuator,1
 Non-Parent Node Connection,AIR LOOP AHU RELIEF AIR OUTLET,CONTROLLER:OUTDOORAIR,AIR LOOP AHU OUTDOOR AIR CONTROLLER,Actuator,1
 Non-Parent Node Connection,AIR LOOP AHU EXTRACT FAN AIR OUTLET NODE,CONTROLLER:OUTDOORAIR,AIR LOOP AHU OUTDOOR AIR CONTROLLER,Sensor,1
 Non-Parent Node Connection,AIR LOOP AHU OUTDOOR AIR INLET,HEATEXCHANGER:AIRTOAIR:SENSIBLEANDLATENT,AIR LOOP AHU HEAT RECOVERY DEVICE,Inlet,1
 Non-Parent Node Connection,AIR LOOP AHU HEAT RECOVERY SUPPLY OUTLET,HEATEXCHANGER:AIRTOAIR:SENSIBLEANDLATENT,AIR LOOP AHU HEAT RECOVERY DEVICE,Outlet,1
 Non-Parent Node Connection,AIR LOOP AHU RELIEF AIR OUTLET,HEATEXCHANGER:AIRTOAIR:SENSIBLEANDLATENT,AIR LOOP AHU HEAT RECOVERY DEVICE,Inlet,2
 Non-Parent Node Connection,AIR LOOP AHU HEAT RECOVERY RELIEF OUTLET,HEATEXCHANGER:AIRTOAIR:SENSIBLEANDLATENT,AIR LOOP AHU HEAT RECOVERY DEVICE,Outlet,2
 Non-Parent Node Connection,AIR LOOP AHU COOLING COIL AIR OUTLET NODE,COIL:HEATING:ELECTRIC,AIR LOOP AHU HEATING COIL,Inlet,1
 Non-Parent Node Connection,AIR LOOP AHU HEATING COIL AIR OUTLET NODE,COIL:HEATING:ELECTRIC,AIR LOOP AHU HEATING COIL,Outlet,1
 Non-Parent Node Connection,AIR LOOP AHU HEATING COIL AIR OUTLET NODE,COIL:HEATING:ELECTRIC,AIR LOOP AHU HEATING COIL,Sensor,1
 Non-Parent Node Connection,HX DEMAND SIDE INLET NODE,HEATEXCHANGER:FLUIDTOFLUID,HX,Inlet,1
 Non-Parent Node Connection,HX DEMAND SIDE OUTLET NODE,HEATEXCHANGER:FLUIDTOFLUID,HX,Outlet,1
 Non-Parent Node Connection,HX SUPPLY SIDE INLET NODE,HEATEXCHANGER:FLUIDTOFLUID,HX,Inlet,2
 Non-Parent Node Connection,HX SUPPLY SIDE OUTLET NODE,HEATEXCHANGER:FLUIDTOFLUID,HX,Outlet,2
 Non-Parent Node Connection,HX SUPPLY SIDE OUTLET NODE,HEATEXCHANGER:FLUIDTOFLUID,HX,Sensor,1
 Non-Parent Node Connection,DISTRICT HEATING WATER INLET NODE,DISTRICTHEATING,DISTRICT HEATING,Inlet,1
 Non-Parent Node Connection,DISTRICT HEATING WATER OUTLET NODE,DISTRICTHEATING,DISTRICT HEATING,Outlet,1
 Non-Parent Node Connection,DISTRICT COOLING WATER INLET NODE,DISTRICTCOOLING,DISTRICT COOLING,Inlet,1
 Non-Parent Node Connection,DISTRICT COOLING WATER OUTLET NODE,DISTRICTCOOLING,DISTRICT COOLING,Outlet,1
 Non-Parent Node Connection,HW LOOP SUPPLY SIDE INLET,PUMP:VARIABLESPEED,HW LOOP SUPPLY PUMP,Inlet,1
 Non-Parent Node Connection,HW LOOP SUPPLY PUMP WATER OUTLET NODE,PUMP:VARIABLESPEED,HW LOOP SUPPLY PUMP,Outlet,1
 Non-Parent Node Connection,CHW LOOP SUPPLY SIDE INLET,PUMP:VARIABLESPEED,CHW LOOP SUPPLY PUMP,Inlet,1
 Non-Parent Node Connection,CHW LOOP SUPPLY PUMP WATER OUTLET NODE,PUMP:VARIABLESPEED,CHW LOOP SUPPLY PUMP,Outlet,1
 Non-Parent Node Connection,CHW BEAM LOOP SUPPLY SIDE INLET,PUMP:VARIABLESPEED,CHW BEAM LOOP SUPPLY PUMP,Inlet,1
 Non-Parent Node Connection,CHW BEAM LOOP SUPPLY PUMP WATER OUTLET NODE,PUMP:VARIABLESPEED,CHW BEAM LOOP SUPPLY PUMP,Outlet,1
